function mpc = case2383wp
%CASE2383WP

%% MATPOWER Case Format : Version 2
mpc.version = '2';

%%-----  Power Flow Data  -----%%
%% system MVA base
mpc.baseMVA = 100;

%% bus data
%	bus_i	type	Pd	Qd	Gs	Bs	area	Vm	Va	baseKV	zone	Vmax	Vmin	lam_P	lam_Q	mu_Vmax	mu_Vmin
mpc.bus = [
	1	1	0	0	0	0	1	1.07185017	0.200181574	220	1	1.11	0.95	135.4288	0.2843	0.0000	0.0000;
	2	1	0	0	0	0	1	1.07289946	0.627243723	220	1	1.11	0.95	135.4869	0.3778	0.0000	0.0000;
	3	1	0	0	0	0	1	1.06513467	-23.0889353	220	1	1.11	0.95	177.8859	1.2410	0.0000	0.0000;
	4	1	0	0	0	0	1	1.06470253	-5.79542445	220	1	1.11	0.95	148.5547	3.0884	0.0000	0.0000;
	5	1	0	0	0	0	1	1.05546636	-17.0175578	220	1	1.11	0.95	153.5935	0.7968	0.0000	0.0000;
	6	1	0	0	0	0	1	1.01201148	-11.8180527	400	1	1.05	0.95	79.1985	-34.6694	0.0000	0.0000;
	7	1	0	0	0	0	1	1.04837411	-18.6950523	220	1	1.11	0.95	208.0569	11.5757	0.0000	0.0000;
	8	1	0	0	0	0	1	1.01194115	-8.92470504	400	1	1.05	0.95	92.5118	-29.3461	0.0000	0.0000;
	9	1	0	0	0	0	1	1.02751701	-14.7447179	400	1	1.05	0.95	102.6459	-19.8263	0.0000	0.0000;
	10	2	12.23	9	0	0	1	1.09587815	-17.5019815	220	1	1.11	0.95	175.5520	0.0000	0.0000	0.0000;
	11	1	0	0	0	0	1	1.07056684	-4.39613334	220	1	1.11	0.95	144.5713	1.8904	0.0000	0.0000;
	12	1	0	0	0	0	1	1.05833618	-19.5285803	220	1	1.11	0.95	202.5697	10.7155	0.0000	0.0000;
	13	1	0	0	0	0	1	1.05338627	-18.830401	220	1	1.11	0.95	209.1083	11.7554	0.0000	0.0000;
	14	1	0	0	0	0	1	1.0564632	-3.00822875	220	1	1.11	0.95	141.5609	1.9402	0.0000	0.0000;
	15	1	0	0	0	0	1	1.00003495	-13.5653514	400	1	1.05	0.95	125.3071	-8.5910	0.0000	0.0000;
	16	2	54.88	100	0	0	1	1.07424627	0.710394529	220	1	1.11	0.95	134.9704	-0.0000	0.0000	0.0000;
	17	2	77	150	0	0	1	1.07853301	1.4857742	220	1	1.11	0.95	134.7616	0.0000	0.0000	0.0000;
	18	3	153	350	0	0	1	1.00030967	0	400	1	1.05	0.95	128.7300	-4.8788	0.0000	0.0000;
	19	1	0	0	0	0	1	1.05619189	-19.105734	220	1	1.11	0.95	202.7464	11.8720	0.0000	0.0000;
	20	1	0	0	0	0	1	1.00748225	-1.33197505	400	1	1.05	0.95	130.2951	-3.5225	0.0000	0.0000;
	21	1	0	0	0	0	1	1.04770534	-19.131229	220	1	1.11	0.95	215.1155	12.0939	0.0000	0.0000;
	22	1	0	0	0	0	1	1.08156797	-8.26346589	220	1	1.11	0.95	151.4125	1.1291	0.0000	0.0000;
	23	1	0	0	0	0	1	1.05612724	-14.8440104	220	2	1.11	0.95	152.3582	0.5530	0.0000	0.0000;
	24	1	0	0	0	0	1	1.05303261	-10.8085507	220	2	1.11	0.95	140.6226	-0.5385	0.0000	0.0000;
	25	1	0	0	0	0	1	1.05503949	-9.27315568	220	2	1.11	0.95	140.0237	-0.3589	0.0000	0.0000;
	26	1	0	0	0	0	1	1.04891237	-17.7255633	220	2	1.11	0.95	156.9367	1.2373	0.0000	0.0000;
	27	1	0	0	0	0	1	1.05066194	-8.51325727	220	2	1.11	0.95	143.7852	1.4010	0.0000	0.0000;
	28	1	0	0	0	0	1	1.05064782	-8.50897751	220	2	1.11	0.95	143.7755	1.3976	0.0000	0.0000;
	29	2	25.98	60	0	0	1	1.07948176	-13.0732342	220	2	1.11	0.95	158.1583	0.0014	0.0000	0.0000;
	30	2	25.98	60	0	0	1	1.0793913	-13.0744723	220	2	1.11	0.95	158.1521	-0.0000	0.0000	0.0000;
	31	2	20.98	50	0	0	1	1.00962773	-8.69479777	400	2	1.05	0.95	122.1687	-15.6761	0.0000	0.0000;
	32	1	0	0	0	0	1	1.0096126	-8.73311808	400	2	1.05	0.95	122.3684	-15.5472	0.0000	0.0000;
	33	1	0	0	0	0	1	1.04556593	-9.29105573	220	2	1.11	0.95	144.8366	1.6050	0.0000	0.0000;
	34	1	0	0	0	0	1	1.03341104	-9.17011098	400	2	1.05	0.95	135.8029	-3.5701	0.0000	0.0000;
	35	1	0	0	0	0	1	1.03344912	-9.1781881	400	2	1.05	0.95	135.8045	-3.5676	0.0000	0.0000;
	36	1	0	0	0	0	1	0.993366225	-12.0363791	400	2	1.05	0.95	131.8094	-9.2235	0.0000	0.0000;
	37	1	0	0	0	0	1	1.06030851	-15.8879845	220	2	1.11	0.95	154.2262	0.7427	0.0000	0.0000;
	38	1	0	0	0	0	1	1.06031571	-15.8869294	220	2	1.11	0.95	154.2284	0.7441	0.0000	0.0000;
	39	1	0	0	0	0	1	1.00528326	-7.84337637	400	2	1.05	0.95	131.2887	-7.6763	0.0000	0.0000;
	40	1	0	0	0	0	1	1.0052712	-7.83496769	400	2	1.05	0.95	131.3301	-7.6348	0.0000	0.0000;
	41	2	11.99	30	0	0	1	1.05694173	-7.16885288	220	2	1.11	0.95	137.6633	-0.7632	0.0000	0.0000;
	42	2	11.99	30	0	0	1	1.05694768	-7.18123457	220	2	1.11	0.95	137.6732	-0.7556	0.0000	0.0000;
	43	2	23.98	60	0	0	1	1.0121901	-5.567436	400	2	1.05	0.95	133.8450	-4.4164	0.0000	0.0000;
	44	2	23.98	60	0	0	1	1.01221049	-5.5793496	400	2	1.05	0.95	133.8283	-4.4344	0.0000	0.0000;
	45	2	159.84	75	0	0	1	1.06501647	-14.1670431	220	2	1.11	0.95	157.1985	0.3275	0.0000	0.0000;
	46	1	0	0	0	0	1	1.06503808	-14.1655987	220	2	1.11	0.95	157.1921	0.3261	0.0000	0.0000;
	47	1	0	0	0	0	1	1.04749496	-9.26313678	220	2	1.11	0.95	143.5589	1.1897	0.0000	0.0000;
	48	1	0	0	0	0	1	1.06362473	-13.1829396	220	2	1.11	0.95	157.4844	0.6509	0.0000	0.0000;
	49	1	0	0	0	0	1	1.06365198	-13.1871263	220	2	1.11	0.95	157.4903	0.6521	0.0000	0.0000;
	50	1	0	0	0	0	1	1.01898566	-7.3442594	400	2	1.05	0.95	134.9671	-3.5625	0.0000	0.0000;
	51	1	0	0	0	0	1	1.01909444	-7.36296413	400	2	1.05	0.95	134.9703	-3.5565	0.0000	0.0000;
	52	1	0	0	0	0	1	1.05469322	-11.6851461	220	2	1.11	0.95	143.7655	0.2540	0.0000	0.0000;
	53	1	0	0	0	0	1	1.05539586	-11.5403072	220	2	1.11	0.95	143.8008	0.2454	0.0000	0.0000;
	54	1	0	0	0	0	1	1.0551364	-9.20556005	220	2	1.11	0.95	139.9205	-0.3811	0.0000	0.0000;
	55	1	0	0	0	0	1	1.06636586	-14.9516425	220	2	1.11	0.95	153.4269	0.6933	0.0000	0.0000;
	56	1	0	0	0	0	1	1.05460783	-3.1620714	220	3	1.11	0.95	134.4927	-0.3924	0.0000	0.0000;
	57	1	22.98	10.96	0	0	1	1.07239232	-6.04554391	220	3	1.11	0.95	136.7432	-0.1160	0.0000	0.0000;
	58	1	21.98	5.79	0	0	1	1.07262624	-6.04545939	220	3	1.11	0.95	136.7416	-0.1272	0.0000	0.0000;
	59	1	0	0	0	0	1	1.08897688	1.74458365	220	3	1.11	0.95	126.3569	0.1790	0.0000	0.0000;
	60	1	0	0	0	0	1	1.07601162	-2.45404403	220	3	1.11	0.95	133.4140	-0.0702	0.0000	0.0000;
	61	1	0	0	0	0	1	1.09833245	3.34815407	220	3	1.11	0.95	127.1497	0.0436	0.0000	0.0000;
	62	1	0	0	0	0	1	1.09830436	3.34977783	220	3	1.11	0.95	127.1468	0.0423	0.0000	0.0000;
	63	2	37.37	52.69	0	0	1	1.09439363	2.12704316	220	3	1.11	0.95	127.8027	-0.0000	0.0000	0.0000;
	64	2	35.37	55.32	0	0	1	1.09524784	1.97478266	220	3	1.11	0.95	128.8481	-0.0000	0.0000	0.0000;
	65	1	13.39	2.02	0	0	1	1.08063632	0.220883477	220	3	1.11	0.95	129.6866	0.0276	0.0000	0.0000;
	66	1	0	0	0	0	1	1.08495179	-5.50511731	220	3	1.11	0.95	136.0446	0.2676	0.0000	0.0000;
	67	2	60.4	92.1	0	0	1	1.03105371	-3.64420025	400	3	1.05	0.95	135.4718	0.0000	0.0000	0.0000;
	68	1	0	0	0	0	1	1.08256505	-4.35635745	220	3	1.11	0.95	134.9931	0.2102	0.0000	0.0000;
	69	1	0	0	0	0	1	1.08390831	0.293213466	220	3	1.11	0.95	130.5802	0.0635	0.0000	0.0000;
	70	1	0	0	0	0	1	1.05904325	-2.34375851	220	3	1.11	0.95	133.5958	-0.5069	0.0000	0.0000;
	71	1	0	0	0	0	1	1.0730347	-0.589917033	220	3	1.11	0.95	131.2335	0.1855	0.0000	0.0000;
	72	1	0	0	0	0	1	1.0730347	-0.589917033	220	3	1.11	0.95	131.2335	0.1855	0.0000	0.0000;
	73	1	0	0	0	0	1	1.06214015	-1.56037762	220	3	1.11	0.95	132.9081	-0.6722	0.0000	0.0000;
	74	1	0	0	0	0	1	1.05945483	-2.48360657	220	3	1.11	0.95	133.9412	-0.5090	0.0000	0.0000;
	75	1	0	0	0	0	1	0.999503728	-2.10614078	400	3	1.05	0.95	131.1858	-2.7154	0.0000	0.0000;
	76	1	0	0	0	0	1	0.999454302	-2.110264	400	3	1.05	0.95	131.1859	-2.7148	0.0000	0.0000;
	77	1	0	0	0	0	1	1.07122407	-1.16656926	220	3	1.11	0.95	132.1583	0.1597	0.0000	0.0000;
	78	1	0	0	0	0	1	1.07039831	-3.27308842	220	3	1.11	0.95	133.4909	0.2162	0.0000	0.0000;
	79	1	0	0	0	0	1	1.08219395	0.191408006	220	3	1.11	0.95	130.8338	0.1874	0.0000	0.0000;
	80	1	0	0	0	0	1	1.07304519	-5.99340839	220	3	1.11	0.95	136.6985	-0.1378	0.0000	0.0000;
	81	1	0	0	0	0	1	1.07305824	-5.99314921	220	3	1.11	0.95	136.6981	-0.1367	0.0000	0.0000;
	82	1	0	0	0	0	1	1.08960903	2.27070144	220	3	1.11	0.95	127.5576	0.1308	0.0000	0.0000;
	83	2	15.99	22.97	0	0	1	1.08410123	0.320939523	220	3	1.11	0.95	130.6322	-0.0002	0.0000	0.0000;
	84	2	15.79	22.27	0	0	1	1.08422141	0.319846731	220	3	1.11	0.95	130.6313	0.0000	0.0000	0.0000;
	85	2	9.99	17.01	0	0	1	1.07391156	-1.05346222	220	3	1.11	0.95	132.0457	0.0011	0.0000	0.0000;
	86	2	9.99	16.66	0	0	1	1.07381696	-1.05120516	220	3	1.11	0.95	132.0451	-0.0000	0.0000	0.0000;
	87	1	11.09	16.22	0	0	1	1.0700775	-1.55356057	220	3	1.11	0.95	132.6945	0.2698	0.0000	0.0000;
	88	1	0	0	0	0	1	1.07011116	-1.55417884	220	3	1.11	0.95	132.6964	0.2739	0.0000	0.0000;
	89	1	0	0	0	0	1	1.0916084	0.0121873762	220	3	1.11	0.95	129.7080	0.0816	0.0000	0.0000;
	90	1	0	0	0	0	1	1.07591126	-0.546429077	220	3	1.11	0.95	131.0955	0.0348	0.0000	0.0000;
	91	1	0	0	0	0	1	1.08202543	0.587569966	220	3	1.11	0.95	129.1706	0.0287	0.0000	0.0000;
	92	1	0	0	0	0	1	0.987505357	-4.9462965	400	3	1.05	0.95	132.9869	-1.3815	0.0000	0.0000;
	93	2	9.99	16.39	0	0	1	1.09154512	1.03614997	220	3	1.11	0.95	129.3780	0.0217	0.0000	0.0000;
	94	1	0	0	0	0	1	1.09151699	1.0348259	220	3	1.11	0.95	129.3740	0.0210	0.0000	0.0000;
	95	2	6.89	8.15	0	0	1	1.09792303	0.803431279	220	3	1.11	0.95	128.9426	-0.0399	0.0000	0.0000;
	96	1	0	0	0	0	1	1.09792266	0.798878531	220	3	1.11	0.95	128.9405	-0.0397	0.0000	0.0000;
	97	2	8.69	5.26	0	0	1	1.07147588	-3.70965089	220	3	1.11	0.95	118.3356	-0.6730	0.0000	0.0000;
	98	1	0	0	0	0	1	1.00913805	-6.4356987	400	3	1.05	0.95	134.6995	-3.3385	0.0000	0.0000;
	99	1	0	0	0	0	1	1.00919297	-6.42616122	400	3	1.05	0.95	134.6936	-3.3424	0.0000	0.0000;
	100	1	0	0	0	0	1	1.00236717	-4.52621629	400	3	1.05	0.95	132.5963	-2.4582	0.0000	0.0000;
	101	1	0	0	0	0	1	1.00242424	-4.51727761	400	3	1.05	0.95	132.5926	-2.4664	0.0000	0.0000;
	102	1	0	0	0	0	1	1.09406692	0.0917100195	220	3	1.11	0.95	129.5530	0.0239	0.0000	0.0000;
	103	2	18.09	23.76	0	0	1	1.07570086	-0.646587941	220	3	1.11	0.95	131.4080	-0.0006	0.0000	0.0000;
	104	2	33.68	46.11	0	0	1	1.07590446	-0.639788564	220	3	1.11	0.95	131.4069	0.0000	0.0000	0.0000;
	105	2	33.78	62.95	0	0	1	0.971845712	-4.43052677	400	3	1.05	0.95	132.4453	-0.7487	0.0000	0.0000;
	106	1	0	0	0	0	1	0.9720324	-4.44149554	400	3	1.05	0.95	132.4461	-0.7452	0.0000	0.0000;
	107	1	0	0	0	0	1	1.05773052	-2.67791027	220	3	1.11	0.95	133.8921	-0.4400	0.0000	0.0000;
	108	1	0	0	0	0	1	1.05953017	-2.4918804	220	3	1.11	0.95	133.8095	-0.4432	0.0000	0.0000;
	109	2	1	22.36	0	0	1	1.10170769	4.06809029	220	3	1.11	0.95	126.7163	0.0000	0.0000	0.0000;
	110	2	1	22.18	0	0	1	1.10163816	4.07006827	220	3	1.11	0.95	126.7134	0.0000	0.0000	0.0000;
	111	2	26.49	18	0	0	1	1.11	-8.96948768	220	4	1.11	0.95	152.8009	0.0000	4592.3722	0.0000;
	112	1	0	0	0	0	1	1.10988773	-8.96791027	220	4	1.11	0.95	152.7976	-0.0019	0.0000	0.0000;
	113	1	0	0	0	0	1	1.06069595	-19.1923484	220	4	1.11	0.95	149.0922	-1.8003	0.0000	0.0000;
	114	1	0	0	0	0	1	1.07398295	-18.0205413	220	4	1.11	0.95	148.3309	-2.9418	0.0000	0.0000;
	115	1	0	0	0	0	1	0.985871604	-15.5191564	400	4	1.05	0.95	146.7967	1.0533	0.0000	0.0000;
	116	1	0	0	0	0	1	0.98584155	-15.5107714	400	4	1.05	0.95	146.7913	1.0589	0.0000	0.0000;
	117	1	0	0	0	0	1	1.07338525	-22.7510842	220	4	1.11	0.95	164.6986	1.8356	0.0000	0.0000;
	118	1	0	0	0	0	1	1.05167474	-30.0072923	220	4	1.11	0.95	174.6117	1.7101	0.0000	0.0000;
	119	1	0	0	0	0	1	1.05167474	-30.0072923	220	4	1.11	0.95	174.6117	1.7101	0.0000	0.0000;
	120	1	0	0	0	0	1	1.04220104	-28.7238742	220	4	1.11	0.95	169.9182	2.6223	0.0000	0.0000;
	121	1	0	0	0	0	1	1.06877739	-20.3359422	220	4	1.11	0.95	149.0303	-0.0532	0.0000	0.0000;
	122	1	0	0	0	0	1	1.06877739	-20.3359422	220	4	1.11	0.95	149.0303	-0.0532	0.0000	0.0000;
	123	2	5.5	7	0	0	1	1.10990799	-12.5442641	220	4	1.11	0.95	157.8409	0.1961	0.1095	0.0000;
	124	2	8.79	17	0	0	1	1.1099292	-12.5422054	220	4	1.11	0.95	157.8569	0.2023	0.1743	0.0000;
	125	2	35.7	18.3	0	0	1	1.08888557	-26.7481539	220	4	1.11	0.95	170.7400	0.0000	0.0000	0.0000;
	126	1	25.28	15.9	0	0	1	1.08877946	-26.7391461	220	4	1.11	0.95	170.7454	-0.0019	0.0000	0.0000;
	127	2	25.71	15.3	0	0	1	1.03811922	-20.2480826	400	4	1.05	0.95	157.7946	-0.0000	0.0000	0.0000;
	128	1	0	0	0	0	1	1.03805127	-20.2563578	400	4	1.05	0.95	157.8035	0.0023	0.0000	0.0000;
	129	1	0	0	0	0	1	1.04447837	-25.0064314	220	4	1.11	0.95	166.1985	3.2266	0.0000	0.0000;
	130	1	0	0	0	0	1	1.03022275	-25.6030686	220	4	1.11	0.95	163.0744	3.6140	0.0000	0.0000;
	131	2	68.67	70	0	0	1	1.09854898	-14.840386	220	4	1.11	0.95	147.6000	-0.0066	0.0000	0.0000;
	132	2	33	45	0	0	1	1.09867542	-14.8601588	220	4	1.11	0.95	147.6038	0.0000	0.0000	0.0000;
	133	1	0	0	0	0	1	1.00430169	-15.0985609	400	4	1.05	0.95	146.9965	0.0694	0.0000	0.0000;
	134	1	0	0	0	0	1	1.00431648	-15.0976579	400	4	1.05	0.95	146.9974	0.0687	0.0000	0.0000;
	135	1	0	0	0	0	1	1.05221195	-29.9429432	220	4	1.11	0.95	174.3179	1.5348	0.0000	0.0000;
	136	1	0	0	0	0	1	1.05221195	-29.9429432	220	4	1.11	0.95	174.3179	1.5348	0.0000	0.0000;
	137	1	0	0	0	0	1	0.996681047	-12.4820416	400	4	1.05	0.95	143.3346	1.6712	0.0000	0.0000;
	138	1	0	0	0	0	1	0.996681047	-12.4820416	400	4	1.05	0.95	143.3346	1.6712	0.0000	0.0000;
	139	2	33.2	22.6	0	0	1	1.11	-12.7319158	220	4	1.11	0.95	157.9654	-0.0000	27767.4842	0.0000;
	140	2	29.23	19.6	0	0	1	1.10998511	-12.7442642	220	4	1.11	0.95	157.9791	0.0218	0.4828	0.0000;
	141	1	0	0	0	0	1	1.04810166	-28.4161795	220	4	1.11	0.95	168.2751	2.3953	0.0000	0.0000;
	142	1	0	0	0	0	1	1.04877133	-30.2189498	220	4	1.11	0.95	174.8135	1.8038	0.0000	0.0000;
	143	1	0	0	0	0	1	1.07193598	-24.1728777	220	4	1.11	0.95	165.4257	1.8912	0.0000	0.0000;
	144	1	0	0	0	0	1	1.07184806	-24.172334	220	4	1.11	0.95	165.4270	1.8903	0.0000	0.0000;
	145	1	0	0	0	0	1	0.978295098	-23.7758338	400	4	1.05	0.95	163.8699	1.9094	0.0000	0.0000;
	146	1	0	0	0	0	1	0.978295098	-23.7758338	400	4	1.05	0.95	163.8699	1.9094	0.0000	0.0000;
	147	1	0	0	0	0	1	1.04208018	-22.6754679	220	4	1.11	0.95	159.8723	3.1779	0.0000	0.0000;
	148	1	0	0	0	0	1	1.04212734	-22.6699717	220	4	1.11	0.95	159.8717	3.1796	0.0000	0.0000;
	149	1	0	0	0	0	1	1.06862589	-24.8801521	220	4	1.11	0.95	166.5892	1.9503	0.0000	0.0000;
	150	1	0	0	0	0	1	1.06350529	-18.590039	220	4	1.11	0.95	148.8038	-0.8005	0.0000	0.0000;
	151	1	0	0	0	0	1	1.06353368	-18.5964938	220	4	1.11	0.95	148.8035	-0.8022	0.0000	0.0000;
	152	1	0	0	0	0	1	1.05730778	-16.2509484	220	4	1.11	0.95	146.1357	0.2474	0.0000	0.0000;
	153	1	0	0	0	0	1	1.05730778	-16.2509484	220	4	1.11	0.95	146.1357	0.2474	0.0000	0.0000;
	154	1	0	0	0	0	1	1.02589548	-24.5044816	220	4	1.11	0.95	161.7162	3.6090	0.0000	0.0000;
	155	1	0	0	0	0	1	1.05293194	-20.9872825	220	5	1.11	0.95	158.5391	1.6338	0.0000	0.0000;
	156	1	0	0	0	0	1	1.11	-24.0966329	220	5	1.11	0.95	158.0157	-4.2702	15203.9832	0.0000;
	157	1	0	0	0	0	1	1.02591964	-22.2312634	400	5	1.05	0.95	157.1774	-1.3573	0.0000	0.0000;
	158	1	0	0	0	0	1	1.02588717	-22.228228	400	5	1.05	0.95	157.1710	-1.3630	0.0000	0.0000;
	159	1	0	0	0	0	1	1.02516607	-20.8518588	400	5	1.05	0.95	153.1098	0.2942	0.0000	0.0000;
	160	1	0	0	0	0	1	1.02522426	-20.8566048	400	5	1.05	0.95	153.1321	0.3017	0.0000	0.0000;
	161	1	0	0	0	0	1	1.05167105	-25.4284707	220	5	1.11	0.95	160.0666	1.5185	0.0000	0.0000;
	162	1	0	0	0	0	1	1.05168272	-25.4294676	220	5	1.11	0.95	160.0657	1.5174	0.0000	0.0000;
	163	1	0	0	0	0	1	1.0843655	-20.879912	220	5	1.11	0.95	153.1256	1.4018	0.0000	0.0000;
	164	1	0	0	0	0	1	1.08435247	-20.8839575	220	5	1.11	0.95	153.1369	1.4039	0.0000	0.0000;
	165	1	0	0	0	0	1	0.996603104	-19.9998605	400	5	1.05	0.95	144.7433	-0.9657	0.0000	0.0000;
	166	1	0	0	0	0	1	1.06512845	-20.1869639	220	5	1.11	0.95	158.2703	1.5352	0.0000	0.0000;
	167	1	0	0	0	0	1	1.06516441	-20.1837867	220	5	1.11	0.95	158.2677	1.5360	0.0000	0.0000;
	168	1	0	0	0	0	1	1.02660786	-22.6055066	400	5	1.05	0.95	157.8596	1.0940	0.0000	0.0000;
	169	1	0	0	0	0	1	1.02659221	-22.6124766	400	5	1.05	0.95	157.8752	1.0984	0.0000	0.0000;
	170	1	0	0	0	0	1	1.04968553	-23.638741	220	5	1.11	0.95	170.2480	1.7525	0.0000	0.0000;
	171	1	0	0	0	0	1	1.0497155	-23.6366276	220	5	1.11	0.95	170.2549	1.7530	0.0000	0.0000;
	172	1	0	0	0	0	1	1.05926537	-22.1263588	220	5	1.11	0.95	157.9513	1.9755	0.0000	0.0000;
	173	1	0	0	0	0	1	1.05923159	-22.1258245	220	5	1.11	0.95	157.9591	1.9753	0.0000	0.0000;
	174	1	0	0	0	0	1	1.0570456	-20.3791003	220	5	1.11	0.95	160.6159	1.5520	0.0000	0.0000;
	175	1	0	0	0	0	1	1.05703154	-20.3856115	220	5	1.11	0.95	160.6069	1.5511	0.0000	0.0000;
	176	2	0	40	0	0	1	1.02859323	-19.2308809	400	5	1.05	0.95	152.8787	-0.0015	0.0000	0.0000;
	177	2	0	40	0	0	1	1.02875176	-19.2304248	400	5	1.05	0.95	152.8754	0.0000	0.0000	0.0000;
	178	1	0	0	0	0	1	1.07728077	-26.1332212	220	5	1.11	0.95	160.8587	-1.0144	0.0000	0.0000;
	179	1	0	0	0	0	1	1.07731573	-26.1290915	220	5	1.11	0.95	160.8551	-1.0184	0.0000	0.0000;
	180	2	339.85	49.6	0	0	2	0.950000004	-7.44823199	400	6	1.05	0.95	133.9116	-0.0000	0.0000	1561.7845;
	181	2	0	0	0	0	3	1.10999995	-8.12342954	220	6	1.11	0.95	147.0480	0.0000	118.9664	0.0000;
	182	2	0	0	0	0	5	1.007371	-14.817325	400	6	1.05	0.95	146.8582	0.0000	0.0000	0.0000;
	183	1	150	0	0	0	3	1.03957789	-10.1238107	400	6	1.05	0.95	136.0398	-3.7304	0.0000	0.0000;
	184	2	317.34	50.3	0	0	2	1.07983812	-3.72906461	220	6	1.11	0.95	133.2280	0.0000	0.0000	0.0000;
	185	2	362.43	36.7	0	0	2	0.950000005	-8.32084116	400	6	1.05	0.95	134.3986	-0.0000	0.0000	1369.9498;
	186	2	33.33	1	0	0	5	1.08855386	-26.8716932	220	6	1.11	0.95	170.8219	-0.0000	0.0000	0.0000;
	187	1	7.12	1.5	0	0	1	1.06144248	-23.2702118	110	1	1.12	0.95	233.0054	-3.2916	0.0000	0.0000;
	188	1	7.63	1	0	0	1	1.03267418	-29.1478928	110	1	1.12	0.95	187.4628	3.1487	0.0000	0.0000;
	189	1	9.77	8.7	0	0	1	0.979028301	-27.1546532	110	1	1.12	0.95	572.8859	-21.4871	0.0000	0.0000;
	190	1	6.12	1.5	0	0	1	1.08618245	-3.91777675	110	1	1.12	0.95	138.7729	1.5449	0.0000	0.0000;
	191	1	6.12	1.6	0	0	1	1.07212439	-5.25327364	110	1	1.12	0.95	138.3581	2.0928	0.0000	0.0000;
	192	2	30.56	12	0	0	1	1.11999999	-19.683232	110	1	1.12	0.95	146.3366	0.0000	1140.7433	0.0000;
	193	1	15.28	3	0	0	1	1.11785807	-19.5662814	110	1	1.12	0.95	143.9522	0.0276	0.0000	0.0000;
	194	1	0	0	0	0	1	1.11796086	-19.8281873	110	1	1.12	0.95	147.0029	0.1745	0.0000	0.0000;
	195	1	8.14	2	0	0	1	1.07071383	-24.0976915	110	1	1.12	0.95	265.3145	7.2895	0.0000	0.0000;
	196	2	6.92	1.5	0	0	1	1.01602226	-27.9206384	110	1	1.12	0.95	160.9091	7.4628	0.0000	0.0000;
	197	1	6.92	1.5	0	0	1	1.06428964	-12.6948339	110	1	1.12	0.95	152.8427	1.5549	0.0000	0.0000;
	198	2	12.32	1.7	0	0	1	1.06478222	-23.98303	110	1	1.12	0.95	237.7462	16.8356	0.0000	0.0000;
	199	1	1.43	0.5	0	0	1	1.09502787	-6.4428155	110	1	1.12	0.95	143.4601	1.2248	0.0000	0.0000;
	200	1	1.08	0.5	0	0	1	1.097547	-23.0772065	110	1	1.12	0.95	167.3919	8.2037	0.0000	0.0000;
	201	1	5.61	0.5	0	0	1	1.08527731	-24.6830199	110	1	1.12	0.95	179.1787	0.8111	0.0000	0.0000;
	202	1	18.34	2	0	0	1	1.09047242	-21.2481994	110	1	1.12	0.95	170.2269	1.0784	0.0000	0.0000;
	203	1	11.1	1.6	0	0	1	1.06902138	-24.0519552	110	1	1.12	0.95	218.0990	16.5255	0.0000	0.0000;
	204	1	0	0	0	0	1	1.119758	-10.484693	110	1	1.12	0.95	151.4386	0.1648	0.0000	0.0000;
	205	2	6.92	2	0	0	1	1.11999999	-8.38331846	110	1	1.12	0.95	150.2934	-0.0000	696.9720	0.0000;
	206	1	11.2	1	0	0	1	1.05230921	-24.8869671	110	1	1.12	0.95	251.2593	18.3287	0.0000	0.0000;
	207	1	7.32	1.6	0	0	1	1.07379947	-5.03654451	110	1	1.12	0.95	138.0071	2.0557	0.0000	0.0000;
	208	1	-7.32	-4.5	0	0	1	1.07114421	-13.1190396	110	1	1.12	0.95	152.7622	2.0174	0.0000	0.0000;
	209	1	9.36	0.8	0	0	1	1.07721194	-25.3549631	110	1	1.12	0.95	220.0379	6.6812	0.0000	0.0000;
	210	1	15.18	4.4	0	0	1	1.11636279	-8.01551008	110	1	1.12	0.95	146.8750	0.5061	0.0000	0.0000;
	211	1	8.75	0.2	0	0	1	1.07556261	-25.4167269	110	1	1.12	0.95	223.8579	6.2529	0.0000	0.0000;
	212	1	10.18	1.5	0	0	1	1.08535375	-22.6531298	110	1	1.12	0.95	195.5784	1.2541	0.0000	0.0000;
	213	2	-2.04	-1	0	0	1	1.05533342	-24.6713908	110	1	1.12	0.95	323.3603	-8.1922	0.0000	0.0000;
	214	1	12.02	0.5	0	0	1	1.06780879	-26.8447203	110	1	1.12	0.95	180.0377	6.2222	0.0000	0.0000;
	215	1	6.92	2	0	0	1	1.11640535	-8.24503205	110	1	1.12	0.95	149.3698	0.4367	0.0000	0.0000;
	216	1	8.85	0.5	0	0	1	1.08981338	-5.17983231	110	1	1.12	0.95	132.3170	-0.5861	0.0000	0.0000;
	217	1	1.94	0.4	0	0	1	1.11957981	-18.2304714	110	1	1.12	0.95	187.8848	-0.0470	0.0000	0.0000;
	218	1	12.22	1.5	0	0	1	1.07010182	-26.3295748	110	1	1.12	0.95	180.3699	1.5895	0.0000	0.0000;
	219	1	2.55	0.5	0	0	1	1.08535661	-25.0214218	110	1	1.12	0.95	176.4725	0.8468	0.0000	0.0000;
	220	1	2.55	0.5	0	0	1	1.05481416	-26.1354499	110	1	1.12	0.95	178.0304	2.0029	0.0000	0.0000;
	221	1	4.08	0.5	0	0	1	1.01443254	-31.7991894	110	1	1.12	0.95	197.0175	3.4302	0.0000	0.0000;
	222	1	6.53	0.4	0	0	1	1.09698921	-22.1500304	110	1	1.12	0.95	184.0533	12.5333	0.0000	0.0000;
	223	1	18.65	4	0	0	1	1.07765487	-18.1340172	110	1	1.12	0.95	348.6571	5.4495	0.0000	0.0000;
	224	1	19.86	2.5	0	0	1	1.05513012	-24.8196837	110	1	1.12	0.95	243.9914	18.0826	0.0000	0.0000;
	225	1	17.3	2	0	0	1	1.03804321	-29.024663	110	1	1.12	0.95	180.7649	2.9090	0.0000	0.0000;
	226	1	24.44	1.5	0	0	1	1.08493156	-24.7552956	110	1	1.12	0.95	171.1042	1.8033	0.0000	0.0000;
	227	1	5.61	1	0	0	1	1.08484072	-24.8535443	110	1	1.12	0.95	172.3628	1.8084	0.0000	0.0000;
	228	1	11.4	1.1	0	0	1	1.06851852	-5.70531248	110	1	1.12	0.95	139.1039	2.2078	0.0000	0.0000;
	229	1	11	2.7	0	0	1	1.10750564	-11.6461383	110	1	1.12	0.95	153.6375	0.5813	0.0000	0.0000;
	230	1	7.63	1	0	0	1	1.01067401	-32.4681465	110	1	1.12	0.95	198.6377	3.4394	0.0000	0.0000;
	231	1	7.94	1.1	0	0	1	1.08586949	-21.6122725	110	1	1.12	0.95	217.0756	15.2540	0.0000	0.0000;
	232	1	7.94	1.1	0	0	1	1.05374176	-21.973291	110	1	1.12	0.95	246.4099	19.7667	0.0000	0.0000;
	233	1	1.84	0.8	0	0	1	1.071711	-26.1651565	110	1	1.12	0.95	216.0125	4.7469	0.0000	0.0000;
	234	1	33.46	28	0	0	1	1.07378081	-4.79854656	110	1	1.12	0.95	137.3446	2.0865	0.0000	0.0000;
	235	1	33.76	28	0	0	1	1.07133156	-3.04910401	110	1	1.12	0.95	136.7028	1.8743	0.0000	0.0000;
	236	1	1.02	0.5	0	0	1	1.05110579	-24.6829686	110	1	1.12	0.95	259.2600	18.5271	0.0000	0.0000;
	237	1	13.95	1.7	0	0	1	1.07469007	-24.9042449	110	1	1.12	0.95	214.1177	13.4210	0.0000	0.0000;
	238	1	9.98	1	0	0	1	1.10437746	-21.4766634	110	1	1.12	0.95	175.3393	11.3568	0.0000	0.0000;
	239	1	15.28	1.5	0	0	1	1.09362229	-21.4665473	110	1	1.12	0.95	164.9794	1.3063	0.0000	0.0000;
	240	1	11.2	1.5	0	0	1	1.01778829	-31.1439941	110	1	1.12	0.95	195.5513	3.4132	0.0000	0.0000;
	241	1	10.18	3	0	0	1	1.04267162	-24.0866654	110	1	1.12	0.95	360.1477	3.8094	0.0000	0.0000;
	242	1	1.22	0.1	0	0	1	1.05905687	-24.1087901	110	1	1.12	0.95	224.4790	16.9143	0.0000	0.0000;
	243	1	0	0	0	0	1	1.10977729	-20.5368206	110	1	1.12	0.95	196.6015	13.9312	0.0000	0.0000;
	244	1	1.02	0	0	0	1	1.09680471	-21.4049367	110	1	1.12	0.95	198.9320	14.3347	0.0000	0.0000;
	245	1	12.12	5.4	0	0	1	1.11848644	-9.61487958	110	1	1.12	0.95	150.3202	0.5853	0.0000	0.0000;
	246	1	-8.14	-3.6	0	0	1	1.11816866	-7.82650907	110	1	1.12	0.95	147.9951	0.7836	0.0000	0.0000;
	247	1	11.2	1.5	0	0	1	1.06806666	-12.391229	110	1	1.12	0.95	152.0007	1.4271	0.0000	0.0000;
	248	1	3.06	0.5	0	0	1	1.11152349	-20.5233903	110	1	1.12	0.95	158.4290	0.6663	0.0000	0.0000;
	249	1	9.16	0	0	0	1	1.10053716	-21.4424609	110	1	1.12	0.95	179.4059	1.1289	0.0000	0.0000;
	250	1	27.71	3	0	0	1	1.0895294	-22.0733672	110	1	1.12	0.95	189.0314	14.3081	0.0000	0.0000;
	251	1	21.38	4	0	0	1	1.06998527	-3.28703252	110	1	1.12	0.95	136.8495	1.9017	0.0000	0.0000;
	252	1	21.38	4	0	0	1	1.06850542	-5.65047095	110	1	1.12	0.95	138.0238	2.2131	0.0000	0.0000;
	253	1	14.87	4.3	0	0	1	1.11632003	-9.46850842	110	1	1.12	0.95	149.5809	1.0920	0.0000	0.0000;
	254	1	19.86	3.5	0	0	1	1.10547168	-11.3457865	110	1	1.12	0.95	156.9684	1.7082	0.0000	0.0000;
	255	1	10.18	1	0	0	1	1.0861647	-24.1232861	110	1	1.12	0.95	181.3254	0.8667	0.0000	0.0000;
	256	1	5.61	0	0	0	1	1.10538284	-21.7666569	110	1	1.12	0.95	155.0750	1.2823	0.0000	0.0000;
	257	1	7.12	0.2	0	0	1	1.04807869	-24.2607792	110	1	1.12	0.95	406.8185	-19.4733	0.0000	0.0000;
	258	1	4.08	0.3	0	0	1	1.08766232	-13.532214	110	1	1.12	0.95	158.0570	1.0400	0.0000	0.0000;
	259	1	20.87	4.2	0	0	1	1.0867368	-22.358809	110	1	1.12	0.95	189.8017	14.4509	0.0000	0.0000;
	260	1	10.69	1.5	0	0	1	1.09400379	-21.2562873	110	1	1.12	0.95	214.1718	14.7020	0.0000	0.0000;
	261	1	7.94	2	0	0	1	1.11544168	-7.93590458	110	1	1.12	0.95	146.3429	0.8416	0.0000	0.0000;
	262	1	0.2	0	0	0	1	1.09400048	-22.3834459	110	1	1.12	0.95	187.9823	13.0561	0.0000	0.0000;
	263	1	5.3	1	0	0	1	1.04839774	-23.4175045	110	1	1.12	0.95	363.2099	-19.7034	0.0000	0.0000;
	264	2	12.22	1	0	0	1	1.06652469	-25.7446995	110	1	1.12	0.95	218.5741	14.0100	0.0000	0.0000;
	265	1	12.22	1	0	0	1	1.08932679	-13.5045295	110	1	1.12	0.95	157.6660	0.9450	0.0000	0.0000;
	266	1	8.34	1.6	0	0	1	1.0834985	-9.42133135	110	1	1.12	0.95	145.4360	0.8591	0.0000	0.0000;
	267	1	10.38	3	0	0	1	1.11808481	-10.4413799	110	1	1.12	0.95	151.2526	0.2869	0.0000	0.0000;
	268	1	14.87	3.7	0	0	1	1.11868929	-8.49347858	110	1	1.12	0.95	150.5074	0.0752	0.0000	0.0000;
	269	2	15.28	4	0	0	1	1.10336796	-20.4672244	110	1	1.12	0.95	156.0203	1.4133	0.0000	0.0000;
	270	1	3.67	0.5	0	0	1	1.11743861	-7.94158553	110	1	1.12	0.95	148.1804	0.7877	0.0000	0.0000;
	271	1	3.67	0.5	0	0	1	1.08528303	-7.53359258	110	1	1.12	0.95	145.5614	1.4335	0.0000	0.0000;
	272	1	9.26	3	0	0	1	1.11554157	-7.92272274	110	1	1.12	0.95	146.3210	0.8401	0.0000	0.0000;
	273	1	12.93	3.7	0	0	1	1.11613257	-8.24457435	110	1	1.12	0.95	149.3383	0.4794	0.0000	0.0000;
	274	1	25.67	7.4	0	0	1	1.11742897	-9.56868209	110	1	1.12	0.95	149.8600	0.4023	0.0000	0.0000;
	275	1	23.22	6.7	0	0	1	1.11831284	-10.4988178	110	1	1.12	0.95	151.3618	0.1478	0.0000	0.0000;
	276	1	14.26	5.1	0	0	1	1.11339506	-10.0121573	110	1	1.12	0.95	150.9340	0.6102	0.0000	0.0000;
	277	2	52.14	20.4	0	0	1	1.11831928	-9.89110566	110	1	1.12	0.95	150.0437	0.7247	0.0000	0.0000;
	278	2	24.95	9.7	0	0	1	1.12	-10.4126283	110	1	1.12	0.95	151.2133	0.0000	1798.3752	0.0000;
	279	2	24.95	9.7	0	0	1	1.11999999	-8.17335976	110	1	1.12	0.95	149.5011	-0.0000	1174.8761	0.0000;
	280	1	0	0	0	0	1	1.11816886	-10.4624153	110	1	1.12	0.95	151.2929	0.2353	0.0000	0.0000;
	281	2	30.66	11.9	0	0	1	1.12	-9.499988	110	1	1.12	0.95	149.7974	0.0000	8611.8930	0.0000;
	282	2	13.14	5.1	0	0	1	1.12	-7.9529467	110	1	1.12	0.95	147.1673	0.0000	3814.9856	0.0000;
	283	1	17.02	0.2	0	0	1	1.09986572	-12.3385963	110	1	1.12	0.95	155.0156	0.6652	0.0000	0.0000;
	284	1	2.55	0.5	0	0	1	1.10250533	-21.1339806	110	1	1.12	0.95	158.9869	1.4793	0.0000	0.0000;
	285	1	8.14	1.5	0	0	1	1.05901561	-24.8090015	110	1	1.12	0.95	297.5278	-0.2766	0.0000	0.0000;
	286	1	29.75	4.1	0	0	1	1.05562223	-24.9768924	110	1	1.12	0.95	308.8996	-3.2092	0.0000	0.0000;
	287	1	12.22	4	0	0	1	1.0437762	-24.0240816	110	1	1.12	0.95	327.1767	8.9709	0.0000	0.0000;
	288	1	13.14	3.8	0	0	1	1.11688411	-9.48257574	110	1	1.12	0.95	149.5220	0.7345	0.0000	0.0000;
	289	2	21.28	6.1	0	0	1	1.11651266	-9.79022987	110	1	1.12	0.95	150.3974	0.2695	0.0000	0.0000;
	290	1	17.32	3	0	0	1	1.09827079	-21.6776987	110	1	1.12	0.95	181.6091	1.3339	0.0000	0.0000;
	291	1	16.81	5.4	0	0	1	1.11883883	-7.99897724	110	1	1.12	0.95	147.1568	0.1232	0.0000	0.0000;
	292	1	17.32	5	0	0	1	1.11682896	-10.007871	110	1	1.12	0.95	150.2572	0.7855	0.0000	0.0000;
	293	1	7.43	2.1	0	0	1	1.11749852	-10.0888024	110	1	1.12	0.95	150.4551	0.6540	0.0000	0.0000;
	294	2	15.28	3	0	0	1	1.10003722	-21.4442446	110	1	1.12	0.95	180.8483	1.1578	0.0000	0.0000;
	295	1	21.28	3.4	0	0	1	1.0581304	-25.2866999	110	1	1.12	0.95	222.2515	16.0567	0.0000	0.0000;
	296	1	17.63	5.1	0	0	1	1.11748794	-10.0953011	110	1	1.12	0.95	150.4669	0.6513	0.0000	0.0000;
	297	1	8.55	2	0	0	1	1.0959684	-9.47091179	110	1	1.12	0.95	147.7401	0.9842	0.0000	0.0000;
	298	1	7.02	1.6	0	0	1	1.09416373	-9.61308745	110	1	1.12	0.95	147.8573	0.9909	0.0000	0.0000;
	299	1	48.06	13.8	0	0	1	1.11347895	-10.0069369	110	1	1.12	0.95	150.9224	0.6060	0.0000	0.0000;
	300	1	21.38	9	0	0	1	1.04675659	-21.6696927	110	1	1.12	0.95	203.9547	4.5493	0.0000	0.0000;
	301	1	6.22	1.3	0	0	1	1.10443582	-11.8703856	110	1	1.12	0.95	154.3201	0.6769	0.0000	0.0000;
	302	1	6.12	1.3	0	0	1	1.05723476	-25.3528506	110	1	1.12	0.95	222.5604	16.1173	0.0000	0.0000;
	303	1	6.32	0.5	0	0	1	1.05648716	-27.4496255	110	1	1.12	0.95	174.3697	3.7588	0.0000	0.0000;
	304	1	17.83	5.1	0	0	1	1.11582457	-8.18543462	110	1	1.12	0.95	149.0979	0.5866	0.0000	0.0000;
	305	1	7.53	1.1	0	0	1	1.0829416	-22.8666377	110	1	1.12	0.95	210.6399	0.2567	0.0000	0.0000;
	306	1	21.38	4	0	0	1	1.11004034	-20.5914988	110	1	1.12	0.95	199.0742	13.8374	0.0000	0.0000;
	307	1	18.34	4	0	0	1	1.04391924	-24.6155385	110	1	1.12	0.95	348.3909	6.9879	0.0000	0.0000;
	308	1	5.1	0	0	0	1	1.10781437	-20.7697128	110	1	1.12	0.95	155.1081	1.0410	0.0000	0.0000;
	309	1	0	0	0	0	1	1.10796151	-20.2569734	110	1	1.12	0.95	183.8605	13.3588	0.0000	0.0000;
	310	1	0	0	0	0	1	1.05460119	-20.4998987	110	1	1.12	0.95	660.7763	-46.1870	0.0000	0.0000;
	311	1	32.4	5.7	0	0	1	1.04827493	-21.3168801	110	1	1.12	0.95	529.3737	-31.8250	0.0000	0.0000;
	312	1	0	0	0	0	1	1.04828291	-21.3171175	110	1	1.12	0.95	529.4632	-31.8033	0.0000	0.0000;
	313	1	7.12	0.5	0	0	1	1.03689679	-30.2285343	110	1	1.12	0.95	179.2404	3.3892	0.0000	0.0000;
	314	2	7.73	1.5	0	0	1	1.08102671	-21.2749967	110	1	1.12	0.95	244.7117	-2.7130	0.0000	0.0000;
	315	1	9.47	0	0	0	1	1.06663777	-27.0645364	110	1	1.12	0.95	202.9724	3.9552	0.0000	0.0000;
	316	1	16.2	4	0	0	1	1.11708804	-9.13782137	110	1	1.12	0.95	148.4662	1.4340	0.0000	0.0000;
	317	1	7.12	2	0	0	1	1.07696692	-23.694172	110	1	1.12	0.95	250.2228	10.8097	0.0000	0.0000;
	318	1	6.12	2	0	0	1	1.04593477	-23.872945	110	1	1.12	0.95	305.8240	11.6007	0.0000	0.0000;
	319	1	0.81	0.3	0	0	1	1.07014481	-5.38922068	110	1	1.12	0.95	137.8154	2.1745	0.0000	0.0000;
	320	1	7.12	1	0	0	1	1.09689743	-22.5918736	110	1	1.12	0.95	159.9494	1.2607	0.0000	0.0000;
	321	1	0	0	0	0	1	1.08122526	-21.6944928	110	1	1.12	0.95	231.3001	16.6925	0.0000	0.0000;
	322	1	0	0	0	0	1	1.05880694	-23.618639	110	1	1.12	0.95	267.5010	17.5903	0.0000	0.0000;
	323	1	9.98	1.8	0	0	1	1.04673534	-22.5902827	110	1	1.12	0.95	443.7976	-26.8666	0.0000	0.0000;
	324	1	11.2	1.6	0	0	1	1.05711291	-24.4034513	110	1	1.12	0.95	224.8285	16.9809	0.0000	0.0000;
	325	1	13.65	0.3	0	0	1	1.0905837	-23.1277663	110	1	1.12	0.95	206.6806	12.1165	0.0000	0.0000;
	326	1	6.62	1.2	0	0	1	1.06790157	-13.3465076	110	1	1.12	0.95	151.8509	1.9751	0.0000	0.0000;
	327	1	4.08	0.1	0	0	1	1.11895545	-18.4004837	110	1	1.12	0.95	188.2137	-0.0830	0.0000	0.0000;
	328	2	45.83	23	0	0	1	1.10555672	-21.3299229	110	1	1.12	0.95	173.3603	11.0926	0.0000	0.0000;
	329	2	45.83	23	0	0	1	1.08975121	-23.0898935	110	1	1.12	0.95	206.6224	12.2569	0.0000	0.0000;
	330	2	48.36	22	0	0	1	1.11934406	-20.2370857	110	1	1.12	0.95	159.1778	8.4614	0.0000	0.0000;
	331	2	48.36	22	0	0	1	1.10942032	-21.4028186	110	1	1.12	0.95	220.8020	13.4549	0.0000	0.0000;