function mpc = case2736sp
%CASE2736SP

%% MATPOWER Case Format : Version 2
mpc.version = '2';

%%-----  Power Flow Data  -----%%
%% system MVA base
mpc.baseMVA = 100;

%% bus data
%	bus_i	type	Pd	Qd	Gs	Bs	area	Vm	Va	baseKV	zone	Vmax	Vmin	lam_P	lam_Q	mu_Vmax	mu_Vmin
mpc.bus = [
	1	1	0	0	0	0	1	1.10101733	36.8491627	220	1	1.11	0.95	97.9187	0.1740	0.0000	0.0000;
	2	1	0	0	0	0	1	1.10601093	38.569445	220	1	1.11	0.95	97.5445	0.0592	0.0000	0.0000;
	3	1	0	0	0	0	1	1.08435476	13.4439412	220	1	1.11	0.95	110.9409	0.1263	0.0000	0.0000;
	4	1	0	0	0	0	1	1.09235059	32.6652923	220	1	1.11	0.95	99.9201	0.4611	0.0000	0.0000;
	5	1	0	0	0	0	1	1.09238241	32.6644689	220	1	1.11	0.95	99.9211	0.4606	0.0000	0.0000;
	6	1	0	0	0	0	1	1.06492083	21.6413629	220	1	1.11	0.95	104.8874	0.8185	0.0000	0.0000;
	7	1	0	0	0	0	1	1.0650375	21.6508247	220	1	1.11	0.95	104.8788	0.8157	0.0000	0.0000;
	8	1	0	0	0	0	1	1.02549772	25.3828833	400	1	1.05	0.95	103.5478	0.3650	0.0000	0.0000;
	9	1	0	0	0	0	1	1.02550679	25.3877048	400	1	1.05	0.95	103.5446	0.3638	0.0000	0.0000;
	10	1	0	0	0	0	1	1.05819721	21.6225482	220	1	1.11	0.95	105.5999	1.0526	0.0000	0.0000;
	11	1	0	0	0	0	1	1.0581147	21.6167487	220	1	1.11	0.95	105.6024	1.0546	0.0000	0.0000;
	12	1	0	0	0	0	1	1.05806629	21.6216278	220	1	1.11	0.95	105.6012	1.0563	0.0000	0.0000;
	13	1	0	0	0	0	1	1.05803101	21.6119213	220	1	1.11	0.95	105.6027	1.0566	0.0000	0.0000;
	14	1	0	0	0	0	1	1.01814616	26.7561969	400	1	1.05	0.95	102.9401	0.6222	0.0000	0.0000;
	15	1	0	0	0	0	1	1.03141994	22.6598541	400	1	1.05	0.95	104.4637	0.0787	0.0000	0.0000;
	16	1	0	0	0	0	1	1.03141994	22.6598541	400	1	1.05	0.95	104.4637	0.0787	0.0000	0.0000;
	17	2	0	0	0	0	1	1.09271943	16.3157698	220	1	1.11	0.95	108.4757	0.0945	0.0000	0.0000;
	18	1	0	0	0	0	1	1.09277027	16.315883	220	1	1.11	0.95	108.4740	0.0938	0.0000	0.0000;
	19	1	0	0	0	0	1	1.09695149	33.6796056	220	1	1.11	0.95	99.3551	0.3508	0.0000	0.0000;
	20	1	0	0	0	0	1	1.09699222	33.682526	220	1	1.11	0.95	99.3548	0.3502	0.0000	0.0000;
	21	1	0	0	0	0	1	1.07735725	20.7980793	220	1	1.11	0.95	105.7430	0.6210	0.0000	0.0000;
	22	1	0	0	0	0	1	1.07735725	20.7980793	220	1	1.11	0.95	105.7430	0.6210	0.0000	0.0000;
	23	1	0	0	0	0	1	1.05585799	21.6135125	220	1	1.11	0.95	105.5975	1.0664	0.0000	0.0000;
	24	1	0	0	0	0	1	1.09816887	35.3783137	220	1	1.11	0.95	98.7808	0.2736	0.0000	0.0000;
	25	1	0	0	0	0	1	1.03136824	24.5964602	400	1	1.05	0.95	103.8023	0.4047	0.0000	0.0000;
	26	2	61.358	72.054	0	0	1	1.11	37.1806351	220	1	1.11	0.95	97.7431	-0.0000	1022.2138	0.0000;
	27	2	84.861	122.06	0	0	1	1.11	38.8630637	220	1	1.11	0.95	97.4065	-0.0000	1590.1083	0.0000;
	28	3	49	74	0	0	1	1.04603644	36.029099	400	1	1.05	0.95	98.5649	-0.0008	0.0000	0.0000;
	29	2	49	74	0	0	1	1.04604979	36.0351175	400	1	1.05	0.95	98.5617	-0.0000	0.0000	0.0000;
	30	1	0	0	0	0	1	1.06559465	21.3584541	220	1	1.11	0.95	105.6089	0.8714	0.0000	0.0000;
	31	1	0	0	0	0	1	1.04383103	34.6224106	400	1	1.05	0.95	98.8593	-0.0695	0.0000	0.0000;
	32	1	0	0	0	0	1	1.05532228	21.3048303	220	1	1.11	0.95	105.8146	1.1221	0.0000	0.0000;
	33	1	0	0	0	0	1	1.09932874	30.4197417	220	1	1.11	0.95	100.7030	0.2880	0.0000	0.0000;
	34	1	0	0	0	0	1	1.07661862	27.2137624	220	2	1.11	0.95	101.9123	-0.2924	0.0000	0.0000;
	35	1	0	0	0	0	1	1.0798708	27.6481601	220	2	1.11	0.95	102.0623	-0.6506	0.0000	0.0000;
	36	1	0	0	0	0	1	1.08764948	28.621946	220	2	1.11	0.95	101.3780	-0.8352	0.0000	0.0000;
	37	1	0	0	0	0	1	1.08763814	28.6200218	220	2	1.11	0.95	101.3790	-0.8351	0.0000	0.0000;
	38	1	0	0	0	0	1	1.06677002	25.9756459	220	2	1.11	0.95	102.7654	-0.4172	0.0000	0.0000;
	39	1	0	0	0	0	1	1.11	28.9686573	220	2	1.11	0.95	101.1085	-2.9773	17335.8853	0.0000;
	40	1	0	0	0	0	1	1.10988724	28.9691442	220	2	1.11	0.95	101.1100	-2.9656	0.0000	0.0000;
	41	1	0	0	0	0	1	1.02379908	29.1688779	400	2	1.05	0.95	101.1296	-2.0266	0.0000	0.0000;
	42	2	25	0	0	0	1	1.09098935	27.745083	220	2	1.11	0.95	101.8403	-0.1041	0.0000	0.0000;
	43	2	26	0	0	0	1	1.09089788	27.7637222	220	2	1.11	0.95	101.8344	-0.1049	0.0000	0.0000;
	44	2	25	0	0	0	1	1.0273068	28.1638061	400	2	1.05	0.95	102.0500	-0.0187	0.0000	0.0000;
	45	1	0	0	0	0	1	1.02726079	28.1611627	400	2	1.05	0.95	102.0498	-0.0184	0.0000	0.0000;
	46	1	0	0	0	0	1	1.106525	28.4742574	220	2	1.11	0.95	101.4527	-2.7736	0.0000	0.0000;
	47	1	0	0	0	0	1	1.03789915	25.8303878	400	2	1.05	0.95	102.2159	-0.8269	0.0000	0.0000;
	48	1	0	0	0	0	1	1.03786923	25.8245991	400	2	1.05	0.95	102.2186	-0.8260	0.0000	0.0000;
	49	1	0	0	0	0	1	1.03402432	27.6565671	400	2	1.05	0.95	102.0684	-0.1369	0.0000	0.0000;
	50	1	0	0	0	0	1	1.07438864	27.0337259	220	2	1.11	0.95	102.0757	-0.4662	0.0000	0.0000;
	51	1	0	0	0	0	1	1.07437117	27.0365336	220	2	1.11	0.95	102.0757	-0.4661	0.0000	0.0000;
	52	1	0	0	0	0	1	1.03806115	28.4085163	400	2	1.05	0.95	101.6708	-0.7412	0.0000	0.0000;
	53	1	0	0	0	0	1	1.03808188	28.4106989	400	2	1.05	0.95	101.6692	-0.7431	0.0000	0.0000;
	54	2	13	0	0	0	1	1.09248439	29.6390143	220	2	1.11	0.95	100.9151	-0.9764	0.0000	0.0000;
	55	2	13	0	0	0	1	1.09244621	29.6359102	220	2	1.11	0.95	100.9136	-0.9777	0.0000	0.0000;
	56	2	13	0	0	0	1	1.04483079	29.3444418	400	2	1.05	0.95	101.1620	-1.1248	0.0000	0.0000;
	57	2	26	0	0	0	1	1.04480335	29.3408301	400	2	1.05	0.95	101.1639	-1.1251	0.0000	0.0000;
	58	2	89.067	40	0	0	1	1.08485656	27.3293543	220	2	1.11	0.95	102.0280	-0.1952	0.0000	0.0000;
	59	1	0	0	0	0	1	1.08486762	27.330939	220	2	1.11	0.95	102.0267	-0.1957	0.0000	0.0000;
	60	1	0	0	0	0	1	1.10182049	28.4067695	220	2	1.11	0.95	101.4489	-2.3651	0.0000	0.0000;
	61	1	0	0	0	0	1	1.09244549	27.3144362	220	2	1.11	0.95	102.1677	-0.6546	0.0000	0.0000;
	62	1	0	0	0	0	1	1.09240898	27.3115496	220	2	1.11	0.95	102.1681	-0.6506	0.0000	0.0000;
	63	1	0	0	0	0	1	1.04851173	28.2619045	400	2	1.05	0.95	101.4010	-1.0667	0.0000	0.0000;
	64	1	0	0	0	0	1	1.04846273	28.2503337	400	2	1.05	0.95	101.4053	-1.0653	0.0000	0.0000;
	65	1	0	0	0	0	1	1.08105489	27.5430463	220	2	1.11	0.95	101.8610	-0.6276	0.0000	0.0000;
	66	1	0	0	0	0	1	1.08250902	27.7083271	220	2	1.11	0.95	101.7501	-0.6550	0.0000	0.0000;
	67	1	0	0	0	0	1	1.07497668	27.7528399	220	2	1.11	0.95	101.7245	-0.4387	0.0000	0.0000;
	68	1	0	0	0	0	1	1.10112893	32.6196402	220	3	1.11	0.95	99.7798	-0.3561	0.0000	0.0000;
	69	1	10.327	0	0	0	1	1.09617701	29.331151	220	3	1.11	0.95	101.2371	-0.5188	0.0000	0.0000;
	70	1	8.032	3.714	0	0	1	1.09602114	29.3380307	220	3	1.11	0.95	101.2345	-0.5150	0.0000	0.0000;
	71	1	0	0	0	0	1	1.0991944	32.3607016	220	3	1.11	0.95	99.5692	0.0928	0.0000	0.0000;
	72	1	0	0	0	0	1	1.09922607	32.3726892	220	3	1.11	0.95	99.5658	0.0915	0.0000	0.0000;
	73	1	0	0	0	0	1	1.09607306	32.1118728	220	3	1.11	0.95	99.6858	0.0188	0.0000	0.0000;
	74	1	0	0	0	0	1	1.0960527	32.1070565	220	3	1.11	0.95	99.6868	0.0189	0.0000	0.0000;
	75	1	0	0	0	0	1	1.09854116	30.8029972	220	3	1.11	0.95	100.6562	0.1743	0.0000	0.0000;
	76	1	0	0	0	0	1	1.0984288	30.7959762	220	3	1.11	0.95	100.6605	0.1766	0.0000	0.0000;
	77	2	27	70	0	0	1	1.10209581	33.1829252	220	3	1.11	0.95	99.1927	0.0000	0.0000	0.0000;
	78	2	18.7	42	0	0	1	1.10066074	33.224862	220	3	1.11	0.95	99.2607	-0.0000	0.0000	0.0000;
	79	1	4.934	0.817	0	0	1	1.09210382	31.9011393	220	3	1.11	0.95	100.0566	0.2163	0.0000	0.0000;
	80	1	0	0	0	0	1	1.09212213	31.9021996	220	3	1.11	0.95	100.0558	0.2161	0.0000	0.0000;
	81	2	18	57	0	0	1	1.03261369	32.3004427	400	3	1.05	0.95	99.4357	-0.0542	0.0000	0.0000;
	82	1	0	0	0	0	1	1.08860155	31.308387	220	3	1.11	0.95	99.9555	-0.5983	0.0000	0.0000;
	83	1	0	0	0	0	1	1.09823079	31.6150886	220	3	1.11	0.95	100.0538	0.0218	0.0000	0.0000;
	84	1	0	0	0	0	1	1.09823253	31.6200985	220	3	1.11	0.95	100.0519	0.0217	0.0000	0.0000;
	85	1	44.864	-6.4	0	0	1	1.10205326	32.6063342	220	3	1.11	0.95	99.7026	-0.3872	0.0000	0.0000;
	86	1	0	0	0	0	1	1.10202909	32.6011208	220	3	1.11	0.95	99.7048	-0.3867	0.0000	0.0000;
	87	1	0	0	0	0	1	1.09241587	31.9156486	220	3	1.11	0.95	99.8562	0.1016	0.0000	0.0000;
	88	1	0	0	0	0	1	1.09240354	31.9212435	220	3	1.11	0.95	99.8545	0.1023	0.0000	0.0000;
	89	1	0	0	0	0	1	1.10331239	33.0602898	220	3	1.11	0.95	99.4710	-0.4008	0.0000	0.0000;
	90	1	0	0	0	0	1	1.10330918	33.055852	220	3	1.11	0.95	99.4732	-0.4029	0.0000	0.0000;
	91	1	0	0	0	0	1	1.04752367	34.2249192	400	3	1.05	0.95	99.1804	-0.2499	0.0000	0.0000;
	92	1	0	0	0	0	1	1.0475187	34.2232094	400	3	1.05	0.95	99.1807	-0.2499	0.0000	0.0000;
	93	1	0	0	0	0	1	1.09372835	31.5105901	220	3	1.11	0.95	100.0389	0.0638	0.0000	0.0000;
	94	1	0	0	0	0	1	1.09375181	31.5060122	220	3	1.11	0.95	100.0405	0.0641	0.0000	0.0000;
	95	1	0	0	0	0	1	1.09302743	31.7571149	220	3	1.11	0.95	99.9944	-0.1770	0.0000	0.0000;
	96	1	0	0	0	0	1	1.09301433	31.7548264	220	3	1.11	0.95	99.9941	-0.1793	0.0000	0.0000;
	97	2	12.49	3.696	0	0	1	1.09921935	32.473152	220	3	1.11	0.95	99.6305	-0.2325	0.0000	0.0000;
	98	1	17.327	6.126	0	0	1	1.09921452	32.466524	220	3	1.11	0.95	99.6329	-0.2345	0.0000	0.0000;
	99	1	0	0	0	0	1	1.09622455	29.35548	220	3	1.11	0.95	101.2242	-0.5192	0.0000	0.0000;
	100	1	0	0	0	0	1	1.09623171	29.355323	220	3	1.11	0.95	101.2239	-0.5182	0.0000	0.0000;
	101	1	0	0	0	0	1	1.09186146	30.429858	220	3	1.11	0.95	100.9555	0.3390	0.0000	0.0000;
	102	1	0	0	0	0	1	1.09183001	30.4301523	220	3	1.11	0.95	100.9548	0.3396	0.0000	0.0000;
	103	2	14	40	0	0	1	1.09977438	31.5949278	220	3	1.11	0.95	100.0820	0.0000	0.0000	0.0000;
	104	2	0	0	0	0	1	1.09972138	31.567817	220	3	1.11	0.95	100.0912	0.0013	0.0000	0.0000;
	105	2	7	18	0	0	1	1.09544136	31.9916837	220	3	1.11	0.95	99.7821	0.0000	0.0000	0.0000;
	106	2	0	0	0	0	1	1.09538883	31.9890488	220	3	1.11	0.95	99.7842	0.0001	0.0000	0.0000;
	107	1	0	13.892	0	0	1	1.09956527	31.9115994	220	3	1.11	0.95	99.8935	-0.4872	0.0000	0.0000;
	108	1	73.779	8.097	0	0	1	1.09957967	31.9020065	220	3	1.11	0.95	99.8960	-0.4905	0.0000	0.0000;
	109	1	0	0	0	0	1	1.09386347	31.1662531	220	3	1.11	0.95	100.5969	0.0349	0.0000	0.0000;
	110	1	0	0	0	0	1	1.0872649	31.8124174	220	3	1.11	0.95	100.2136	0.3412	0.0000	0.0000;
	111	1	0	0	0	0	1	1.08729511	31.8129227	220	3	1.11	0.95	100.2130	0.3407	0.0000	0.0000;
	112	1	0	0	0	0	1	1.09328092	31.9756277	220	3	1.11	0.95	99.9889	0.1987	0.0000	0.0000;
	113	1	0	0	0	0	1	1.09333805	31.9847261	220	3	1.11	0.95	99.9850	0.1976	0.0000	0.0000;
	114	1	0	0	0	0	1	1.04151964	31.3427458	400	3	1.05	0.95	100.0076	-0.6874	0.0000	0.0000;
	115	2	0	0	0	0	1	1.10000509	32.8601169	220	3	1.11	0.95	99.3702	-0.0456	0.0000	0.0000;
	116	2	8	15	0	0	1	1.10001801	32.8624879	220	3	1.11	0.95	99.3710	-0.0462	0.0000	0.0000;
	117	2	5.5	10	0	0	1	1.09839607	31.9775517	220	3	1.11	0.95	100.0291	-0.0472	0.0000	0.0000;
	118	1	0	0	0	0	1	1.0984173	31.9686179	220	3	1.11	0.95	100.0311	-0.0481	0.0000	0.0000;
	119	1	0	0	0	0	1	1.04963472	29.0860245	400	3	1.05	0.95	101.1412	-1.1076	0.0000	0.0000;
	120	1	0	0	0	0	1	1.04966859	29.0908354	400	3	1.05	0.95	101.1390	-1.1086	0.0000	0.0000;
	121	1	0	0	0	0	1	1.04997993	31.4937916	400	3	1.05	0.95	99.9447	-1.1864	0.0000	0.0000;
	122	1	0	0	0	0	1	1.05	31.4989088	400	3	1.05	0.95	99.9429	-1.1894	9407.5787	0.0000;
	123	1	0	0	0	0	1	1.09317076	31.0999823	220	3	1.11	0.95	100.7154	0.0469	0.0000	0.0000;
	124	2	11	17.5	0	0	1	1.09953465	33.0512478	220	3	1.11	0.95	99.3570	-0.0040	0.0000	0.0000;
	125	2	41.353	61.2	0	0	1	1.09943355	33.0686564	220	3	1.11	0.95	99.3514	-0.0000	0.0000	0.0000;
	126	2	14	33	0	0	1	1.0364555	31.7562665	400	3	1.05	0.95	99.7677	-0.3087	0.0000	0.0000;
	127	1	0	0	0	0	1	1.03644314	31.7567204	400	3	1.05	0.95	99.7677	-0.3096	0.0000	0.0000;
	128	1	0	0	0	0	1	1.10145549	32.4981821	220	3	1.11	0.95	99.7618	-0.3746	0.0000	0.0000;
	129	1	0	0	0	0	1	1.10142672	32.5003675	220	3	1.11	0.95	99.7601	-0.3741	0.0000	0.0000;
	130	1	0	0	0	0	1	1.10194023	32.7238592	220	3	1.11	0.95	99.6430	-0.3660	0.0000	0.0000;
	131	2	1.5	9	0	0	1	1.10125958	31.155311	220	3	1.11	0.95	100.4805	0.1306	0.0000	0.0000;
	132	2	0	0	0	0	1	1.09846138	30.7957462	220	3	1.11	0.95	100.6605	0.1758	0.0000	0.0000;
	133	2	11.215	8.3	0	0	1	1.11	29.3547804	220	4	1.11	0.95	100.9845	-0.0000	523.5776	0.0000;
	134	2	10.333	7.7	0	0	1	1.11	29.3517762	220	4	1.11	0.95	100.9853	-0.0000	480.7517	0.0000;
	135	1	0	0	0	0	1	1.0810758	25.2738535	220	4	1.11	0.95	101.0283	-2.1188	0.0000	0.0000;
	136	1	0	0	0	0	1	1.08285548	26.133983	220	4	1.11	0.95	100.9228	-1.3799	0.0000	0.0000;
	137	1	0	0	0	0	1	1.00653407	25.8734277	400	4	1.05	0.95	102.0367	0.0160	0.0000	0.0000;
	138	1	0	0	0	0	1	1.00655195	25.8732926	400	4	1.05	0.95	102.0376	0.0160	0.0000	0.0000;
	139	1	0	0	0	0	1	1.09395822	18.5756053	220	4	1.11	0.95	108.3174	0.4747	0.0000	0.0000;
	140	1	0	0	0	0	1	1.1000551	14.20927	220	4	1.11	0.95	110.8244	0.1793	0.0000	0.0000;
	141	1	0	0	0	0	1	1.1000551	14.20927	220	4	1.11	0.95	110.8244	0.1793	0.0000	0.0000;
	142	1	0	0	0	0	1	1.09952918	16.205232	220	4	1.11	0.95	109.1038	0.2673	0.0000	0.0000;
	143	1	0	0	0	0	1	1.07750183	23.9577641	220	4	1.11	0.95	101.7257	-1.2279	0.0000	0.0000;
	144	1	0	0	0	0	1	1.07750183	23.9577641	220	4	1.11	0.95	101.7257	-1.2279	0.0000	0.0000;
	145	2	0	0	0	0	1	1.10873675	26.0007253	220	4	1.11	0.95	102.7077	0.0288	0.0000	0.0000;
	146	2	0	0	0	0	1	1.10871323	26.0001221	220	4	1.11	0.95	102.7042	0.0299	0.0000	0.0000;
	147	2	25.553	12.9	0	0	1	1.11	16.521018	220	4	1.11	0.95	109.1470	0.0000	418.1168	0.0000;
	148	1	0	0	0	0	1	1.10993561	16.5254359	220	4	1.11	0.95	109.1454	0.0016	0.0000	0.0000;
	149	2	11	12	0	0	1	1.03988871	17.7390392	400	4	1.05	0.95	108.8462	-0.0942	0.0000	0.0000;
	150	2	11.922	13.7	0	0	1	1.03987547	17.740301	400	4	1.05	0.95	108.8461	-0.0935	0.0000	0.0000;
	151	1	0	0	0	0	1	1.0685511	18.2212977	220	4	1.11	0.95	109.0919	1.1208	0.0000	0.0000;
	152	1	0	0	0	0	1	1.09686527	20.503201	220	4	1.11	0.95	106.0499	0.2668	0.0000	0.0000;
	153	1	0	0	0	0	1	1.09681731	20.4987548	220	4	1.11	0.95	106.0507	0.2679	0.0000	0.0000;
	154	2	19.475	64.3	0	0	1	1.08653308	28.3208213	220	4	1.11	0.95	100.3394	-0.0769	0.0000	0.0000;
	155	2	16	33	0	0	1	1.08656701	28.3123715	220	4	1.11	0.95	100.3455	-0.0731	0.0000	0.0000;
	156	1	0	0	0	0	1	1.00448552	27.8554135	400	4	1.05	0.95	100.6484	-0.0001	0.0000	0.0000;
	157	2	10	25	0	0	1	1.00447981	27.8612164	400	4	1.05	0.95	100.6457	-0.0000	0.0000	0.0000;
	158	1	0	0	0	0	1	1.09905724	14.2457089	220	4	1.11	0.95	110.7235	0.1735	0.0000	0.0000;
	159	1	0	0	0	0	1	1.09905724	14.2457089	220	4	1.11	0.95	110.7235	0.1735	0.0000	0.0000;
	160	1	0	0	0	0	1	1.01232794	25.8064186	400	4	1.05	0.95	101.9477	-0.0109	0.0000	0.0000;
	161	1	0	0	0	0	1	1.01528158	26.9372347	400	4	1.05	0.95	101.4889	-0.0393	0.0000	0.0000;
	162	1	0	0	0	0	1	1.01526408	26.933332	400	4	1.05	0.95	101.4908	-0.0394	0.0000	0.0000;
	163	2	5.54	2.93	0	0	1	1.11	25.8517159	220	4	1.11	0.95	102.7593	0.0000	453.4490	0.0000;
	164	2	18.255	11.5	0	0	1	1.11	25.8438146	220	4	1.11	0.95	102.7665	0.0000	711.4804	0.0000;
	165	1	0	0	0	0	1	1.11	25.8438146	220	4	1.11	0.95	102.7664	-0.0013	711.4804	0.0000;
	166	1	0	0	0	0	1	1.08890186	14.2939466	220	4	1.11	0.95	111.1796	0.2060	0.0000	0.0000;
	167	1	0	0	0	0	1	1.09920497	14.0794897	220	4	1.11	0.95	110.8879	0.1892	0.0000	0.0000;
	168	1	0	0	0	0	1	1.09204375	17.3517471	220	4	1.11	0.95	109.2083	0.3701	0.0000	0.0000;
	169	1	0	0	0	0	1	1.09202377	17.3437383	220	4	1.11	0.95	109.2110	0.3697	0.0000	0.0000;
	170	1	0	0	0	0	1	1.02696574	16.8047723	400	4	1.05	0.95	109.3867	0.4082	0.0000	0.0000;
	171	1	0	0	0	0	1	1.02696574	16.8047723	400	4	1.05	0.95	109.3867	0.4082	0.0000	0.0000;
	172	1	0	0	0	0	1	1.06735448	20.8941579	220	4	1.11	0.95	106.5302	0.9101	0.0000	0.0000;
	173	1	0	0	0	0	1	1.06733955	20.9004733	220	4	1.11	0.95	106.5281	0.9107	0.0000	0.0000;
	174	1	0	0	0	0	1	1.09003117	20.8421311	220	4	1.11	0.95	105.2994	0.6344	0.0000	0.0000;
	175	1	0	0	0	0	1	1.08025649	25.5219386	220	4	1.11	0.95	101.0240	-1.9903	0.0000	0.0000;
	176	1	0	0	0	0	1	1.08026227	25.5308282	220	4	1.11	0.95	101.0208	-1.9947	0.0000	0.0000;
	177	1	0	0	0	0	1	1.08187469	26.7745332	220	4	1.11	0.95	100.5932	-2.1262	0.0000	0.0000;
	178	1	0	0	0	0	1	1.08187469	26.7745332	220	4	1.11	0.95	100.5932	-2.1262	0.0000	0.0000;
	179	2	3.13	1.5	0	0	1	1.11	21.7420012	220	4	1.11	0.95	105.3894	0.0000	138.3298	0.0000;
	180	1	0	0	0	0	1	1.06692973	19.9394875	220	4	1.11	0.95	106.9743	0.8788	0.0000	0.0000;
	181	1	0	0	0	0	1	1.07352276	18.844242	220	5	1.11	0.95	106.9351	0.1983	0.0000	0.0000;
	182	1	0	0	0	0	1	1.09084401	15.9562333	220	5	1.11	0.95	109.0236	-0.4286	0.0000	0.0000;
	183	1	0	0	0	0	1	1.03786754	17.0222801	400	5	1.05	0.95	108.6608	-0.4285	0.0000	0.0000;
	184	1	0	0	0	0	1	1.03788968	17.0207421	400	5	1.05	0.95	108.6624	-0.4287	0.0000	0.0000;
	185	1	0	0	0	0	1	1.0322528	18.6111854	400	5	1.05	0.95	107.5433	0.1565	0.0000	0.0000;
	186	1	0	0	0	0	1	1.03227107	18.608443	400	5	1.05	0.95	107.5456	0.1563	0.0000	0.0000;
	187	1	0	0	0	0	1	1.07920695	15.1258337	220	5	1.11	0.95	109.3333	0.2640	0.0000	0.0000;
	188	1	0	0	0	0	1	1.0792408	15.1238475	220	5	1.11	0.95	109.3343	0.2629	0.0000	0.0000;
	189	1	0	0	0	0	1	1.07575801	19.2146642	220	5	1.11	0.95	106.8884	0.3795	0.0000	0.0000;
	190	1	0	0	0	0	1	1.07572087	19.2069201	220	5	1.11	0.95	106.8912	0.3790	0.0000	0.0000;
	191	1	0	0	0	0	1	1.01716163	19.3116099	400	5	1.05	0.95	106.5567	0.4546	0.0000	0.0000;
	192	1	0	0	0	0	1	1.07738792	19.5212873	220	5	1.11	0.95	106.7089	0.2220	0.0000	0.0000;
	193	1	0	0	0	0	1	1.07736637	19.5273073	220	5	1.11	0.95	106.7072	0.2227	0.0000	0.0000;
	194	1	0	0	0	0	1	1.03287663	17.0381045	400	5	1.05	0.95	108.4589	0.2792	0.0000	0.0000;
	195	1	0	0	0	0	1	1.03285702	17.0342181	400	5	1.05	0.95	108.4614	0.2798	0.0000	0.0000;
	196	1	0	0	0	0	1	1.07395069	14.6779298	220	5	1.11	0.95	109.8126	0.5218	0.0000	0.0000;
	197	1	0	0	0	0	1	1.07396883	14.6768887	220	5	1.11	0.95	109.8123	0.5215	0.0000	0.0000;
	198	1	0	0	0	-117	1	1.02955086	17.9588291	400	5	1.05	0.95	107.9700	-0.3448	0.0000	0.0000;
	199	1	0	0	0	0	1	1.02959662	17.9549095	400	5	1.05	0.95	107.9730	-0.3455	0.0000	0.0000;
	200	1	0	0	0	0	1	1.06879021	18.1046164	220	5	1.11	0.95	107.6699	0.5568	0.0000	0.0000;
	201	1	0	0	0	0	1	1.06877662	18.1045812	220	5	1.11	0.95	107.6703	0.5574	0.0000	0.0000;
	202	1	0	0	0	0	1	1.07152889	19.0221108	220	5	1.11	0.95	107.2479	0.6162	0.0000	0.0000;
	203	1	0	0	0	0	1	1.07147559	19.0125363	220	5	1.11	0.95	107.2518	0.6162	0.0000	0.0000;
	204	2	0	0	0	0	1	1.03465855	19.952064	400	5	1.05	0.95	107.0744	-0.0000	0.0000	0.0000;
	205	2	0	0	0	0	1	1.03469127	19.9525364	400	5	1.05	0.95	107.0743	0.0000	0.0000	0.0000;
	206	1	0	0	0	0	1	1.08628299	14.6361418	220	5	1.11	0.95	110.0624	-0.4586	0.0000	0.0000;
	207	1	0	0	0	0	1	1.08629296	14.6400821	220	5	1.11	0.95	110.0587	-0.4590	0.0000	0.0000;
	208	1	9.59	1	0	0	1	1.08880647	17.8615116	110	1	1.12	0.95	108.3279	0.2884	0.0000	0.0000;
	209	1	4.795	0.5	0	0	1	1.07577792	9.95848025	110	1	1.12	0.95	114.9494	0.2088	0.0000	0.0000;
	210	1	4.262	2	0	0	1	1.09399644	18.7267004	110	1	1.12	0.95	105.4538	1.1321	0.0000	0.0000;
	211	1	6.5	5.4	0	0	1	1.06527631	17.1490061	110	1	1.12	0.95	108.9706	2.1039	0.0000	0.0000;
	212	1	2.877	0.6	0	0	1	1.09036982	35.9571218	110	1	1.12	0.95	98.3255	0.1882	0.0000	0.0000;
	213	1	3.197	0.3	0	0	1	1.09692629	34.378712	110	1	1.12	0.95	98.3785	0.2898	0.0000	0.0000;
	214	2	21.711	12.3	0	0	1	1.11196882	17.5457035	110	1	1.12	0.95	106.3453	-0.0000	0.0000	0.0000;
	215	1	12.254	2	0	0	1	1.11308394	17.796579	110	1	1.12	0.95	106.0255	0.0005	0.0000	0.0000;
	216	1	6.926	2	0	0	1	1.11261608	17.7172763	110	1	1.12	0.95	106.1235	0.0061	0.0000	0.0000;
	217	1	10.655	1.5	0	0	1	1.11150564	17.4246951	110	1	1.12	0.95	106.4625	0.0080	0.0000	0.0000;
	218	1	7.672	3	0	0	1	1.08092649	17.5268028	110	1	1.12	0.95	107.8435	1.4858	0.0000	0.0000;
	219	1	8.524	2	0	0	1	1.0805294	17.1062746	110	1	1.12	0.95	107.7751	1.4225	0.0000	0.0000;
	220	2	0	0	0	0	1	1.09898981	20.9739483	110	1	1.12	0.95	102.9733	-0.0000	0.0000	0.0000;
	221	2	6.606	2.1	0	0	1	1.09435172	29.0345211	110	1	1.12	0.95	102.1202	0.1181	0.0000	0.0000;
	222	1	8.099	1.5	0	0	1	1.09094519	18.0932358	110	1	1.12	0.95	106.2881	1.0812	0.0000	0.0000;
	223	1	0.746	0.1	0	0	1	1.07555154	34.4140134	110	1	1.12	0.95	99.7172	0.4541	0.0000	0.0000;
	224	1	3.943	0.2	0	0	1	1.10514482	17.4364892	110	1	1.12	0.95	106.6479	0.3658	0.0000	0.0000;
	225	1	3.197	0.5	0	0	1	1.0922916	13.0975398	110	1	1.12	0.95	111.4140	0.0613	0.0000	0.0000;
	226	1	12.787	1	0	0	1	1.10354813	17.6846937	110	1	1.12	0.95	107.2967	-0.0425	0.0000	0.0000;
	227	1	4.475	0.7	0	0	1	1.09239165	17.9228654	110	1	1.12	0.95	106.3970	0.9823	0.0000	0.0000;
	228	1	4.262	0.7	0	0	1	1.09242958	17.9302473	110	1	1.12	0.95	106.3939	0.9817	0.0000	0.0000;
	229	1	2.451	0.98	0	0	1	1.11233286	29.5394958	110	1	1.12	0.95	100.8222	0.2906	0.0000	0.0000;
	230	1	2.451	0.98	0	0	1	1.09429814	27.8617251	110	1	1.12	0.95	102.5391	0.7230	0.0000	0.0000;
	231	1	5.327	1	0	0	1	1.0834649	17.8293896	110	1	1.12	0.95	106.8484	1.3197	0.0000	0.0000;
	232	1	4.262	1	0	0	1	1.09713232	34.4271155	110	1	1.12	0.95	98.3278	0.2938	0.0000	0.0000;
	233	1	9.057	0.4	0	0	1	1.07344026	26.6359931	110	1	1.12	0.95	102.9157	-0.4307	0.0000	0.0000;
	234	1	31.966	28.001	0	0	1	1.07970634	35.1063386	110	1	1.12	0.95	98.3415	0.5696	0.0000	0.0000;
	235	1	5.86	0.8	0	0	1	1.08638177	14.8664857	110	1	1.12	0.95	110.1694	0.4184	0.0000	0.0000;
	236	1	8.631	2.94	0	0	1	1.10869102	29.9377815	110	1	1.12	0.95	100.1234	0.5466	0.0000	0.0000;
	237	1	5.967	0.2	0	0	1	1.08577902	14.7672069	110	1	1.12	0.95	110.3095	0.4089	0.0000	0.0000;
	238	1	5.328	0.5	0	0	1	1.09310678	15.873047	110	1	1.12	0.95	109.1413	0.2563	0.0000	0.0000;
	239	2	0	0	0	0	1	1.08361489	16.3963621	110	1	1.12	0.95	108.7593	1.0875	0.0000	0.0000;
	240	1	12.04	1	0	0	1	1.08561119	14.1323763	110	1	1.12	0.95	110.2839	0.6782	0.0000	0.0000;
	241	1	3.836	1.18	0	0	1	1.09998937	28.6345815	110	1	1.12	0.95	101.5123	0.6688	0.0000	0.0000;
	242	1	3.729	0.4	0	0	1	1.11391277	31.6141186	110	1	1.12	0.95	98.9038	-0.2331	0.0000	0.0000;
	243	1	3.729	0.4	0	0	1	1.11400536	31.6277358	110	1	1.12	0.95	98.8997	-0.2300	0.0000	0.0000;
	244	1	2.131	1.1	0	0	1	1.10543649	17.3626172	110	1	1.12	0.95	107.8026	0.0150	0.0000	0.0000;
	245	1	0	0	0	0	1	1.09832089	36.9948517	110	1	1.12	0.95	97.6344	0.0467	0.0000	0.0000;
	246	2	0	5	0	0	1	1.07903253	40.2588582	22	1	1.12	0.95	97.8645	-0.0000	0.0000	0.0000;
	247	1	7.458	1	0	0	1	1.08810138	11.8738528	110	1	1.12	0.95	112.7162	0.1087	0.0000	0.0000;
	248	1	2.131	0	0	0	1	1.08824215	11.7314196	110	1	1.12	0.95	111.5892	0.2663	0.0000	0.0000;
	249	1	2.131	0	0	0	1	1.09503417	12.6924682	110	1	1.12	0.95	111.3561	0.0251	0.0000	0.0000;
	250	1	2.664	0.5	0	0	1	1.06503684	8.51802362	110	1	1.12	0.95	118.1523	-0.0258	0.0000	0.0000;
	251	1	3.516	0.1	0	0	1	1.10797855	18.6663872	110	1	1.12	0.95	105.4167	0.3520	0.0000	0.0000;
	252	1	11.721	5.4	0	0	1	1.08870312	22.7295782	110	1	1.12	0.95	103.6137	0.7918	0.0000	0.0000;
	253	1	11.721	4	0	0	1	1.08470604	17.8051474	110	1	1.12	0.95	106.8142	1.2715	0.0000	0.0000;
	254	1	10.122	1	0	0	1	1.07721033	10.5293984	110	1	1.12	0.95	113.3341	0.4605	0.0000	0.0000;
	255	1	12.787	1.5	0	0	1	1.09485609	13.2615045	110	1	1.12	0.95	110.8411	0.1495	0.0000	0.0000;
	256	1	4.795	0	0	0	1	1.09510763	13.0998883	110	1	1.12	0.95	110.9302	0.1371	0.0000	0.0000;
	257	1	3.197	0.65	0	0	1	1.09008061	35.7954169	110	1	1.12	0.95	98.7673	0.2120	0.0000	0.0000;
	258	1	3.197	0.65	0	0	1	1.090029	35.7834918	110	1	1.12	0.95	98.7716	0.2128	0.0000	0.0000;
	259	1	7.992	2.47	0	0	1	1.10422713	28.8173468	110	1	1.12	0.95	101.7429	0.4893	0.0000	0.0000;
	260	1	4.795	0	0	0	1	1.06422167	8.17086136	110	1	1.12	0.95	118.5997	-0.1126	0.0000	0.0000;
	261	1	8.098	1.5	0	0	1	1.08880197	18.2222953	110	1	1.12	0.95	106.4056	1.2632	0.0000	0.0000;
	262	1	0	0	0	0	1	1.08748281	19.18864	110	1	1.12	0.95	105.7321	1.1026	0.0000	0.0000;
	263	1	1.279	1	0	0	1	1.08403453	14.3046632	110	1	1.12	0.95	110.6668	0.4572	0.0000	0.0000;
	264	1	25.574	22	0	0	1	1.09674853	36.7598515	110	1	1.12	0.95	97.7114	0.0830	0.0000	0.0000;
	265	1	34.097	30	0	0	1	1.08903625	34.4376199	110	1	1.12	0.95	98.3250	0.4845	0.0000	0.0000;
	266	1	27.704	0.8	0	0	1	1.10072594	36.893869	110	1	1.12	0.95	97.6883	-0.0654	0.0000	0.0000;
	267	1	1.066	0	0	0	1	1.08297268	17.979481	110	1	1.12	0.95	106.7411	1.3593	0.0000	0.0000;
	268	1	9.59	0.8	0	0	1	1.08506996	17.2603529	110	1	1.12	0.95	107.7211	0.8397	0.0000	0.0000;
	269	1	5.967	2	0	0	1	1.11136081	18.9553468	110	1	1.12	0.95	105.0713	0.2591	0.0000	0.0000;
	270	1	9.057	1.5	0	0	1	1.10226959	17.2627591	110	1	1.12	0.95	107.7499	-0.0484	0.0000	0.0000;
	271	1	6.393	0.5	0	0	1	1.0658207	8.87108653	110	1	1.12	0.95	117.7271	0.0478	0.0000	0.0000;
	272	1	7.885	1.85	0	0	1	1.08301725	18.0234554	110	1	1.12	0.95	106.7433	1.4018	0.0000	0.0000;
	273	1	0.426	0.1	0	0	1	1.07885315	17.4936345	110	1	1.12	0.95	108.0261	1.5925	0.0000	0.0000;
	274	1	0.213	0.06	0	0	1	1.08926442	18.0524528	110	1	1.12	0.95	106.2576	1.2164	0.0000	0.0000;
	275	1	0	0	0	0	1	1.08812095	17.8498139	110	1	1.12	0.95	106.4364	1.2630	0.0000	0.0000;
	276	1	11.401	5.18	0	0	1	1.11510073	30.3186941	110	1	1.12	0.95	100.0542	0.4446	0.0000	0.0000;
	277	1	0	0	0	0	1	1.10836254	29.6204971	110	1	1.12	0.95	100.1853	0.5332	0.0000	0.0000;
	278	1	5.328	1.4	0	0	1	1.0968974	29.2479258	110	1	1.12	0.95	101.7384	0.0731	0.0000	0.0000;
	279	1	2.131	0.5	0	0	1	1.10681087	16.7316445	110	1	1.12	0.95	107.4847	0.0247	0.0000	0.0000;
	280	1	5.328	0.5	0	0	1	1.09880656	15.7171858	110	1	1.12	0.95	109.0765	0.0870	0.0000	0.0000;
	281	1	5.328	1	0	0	1	1.09169174	18.1172364	110	1	1.12	0.95	106.0785	1.1413	0.0000	0.0000;
	282	1	5.328	1	0	0	1	1.09257731	19.2913774	110	1	1.12	0.95	105.5867	0.9026	0.0000	0.0000;
	283	1	14.918	12	0	0	1	1.07885377	34.4194645	110	1	1.12	0.95	98.4989	0.6376	0.0000	0.0000;
	284	1	37.294	33	0	0	1	1.07858682	34.4241431	110	1	1.12	0.95	98.5030	0.6407	0.0000	0.0000;
	285	1	1.386	0.4	0	0	1	1.10449702	36.7824136	110	1	1.12	0.95	97.7161	-0.4022	0.0000	0.0000;
	286	1	0	0	0	0	1	1.09861302	36.7692288	110	1	1.12	0.95	97.6785	0.0403	0.0000	0.0000;
	287	1	8.525	2.9	0	0	1	1.11560108	30.505153	110	1	1.12	0.95	99.8941	0.4715	0.0000	0.0000;
	288	1	7.459	2	0	0	1	1.10979705	29.755816	110	1	1.12	0.95	100.6984	0.5543	0.0000	0.0000;
	289	1	6.926	0.5	0	0	1	1.08999188	13.6262842	110	1	1.12	0.95	111.3074	0.1303	0.0000	0.0000;
	290	1	4.795	0	0	0	1	1.10496835	15.8063611	110	1	1.12	0.95	108.0337	0.1130	0.0000	0.0000;
	291	1	3.729	2.5	0	0	1	1.08412568	17.1667163	110	1	1.12	0.95	107.8954	1.1511	0.0000	0.0000;
	292	1	2.344	0.2	0	0	1	1.09775718	27.4144817	110	1	1.12	0.95	102.9791	0.4478	0.0000	0.0000;
	293	1	11.402	4.1	0	0	1	1.09323632	19.3623971	110	1	1.12	0.95	105.4995	0.8890	0.0000	0.0000;
	294	1	8.311	1.5	0	0	1	1.08953836	18.2287925	110	1	1.12	0.95	106.2006	1.2475	0.0000	0.0000;
	295	1	4.902	1.51	0	0	1	1.11743368	30.7646803	110	1	1.12	0.95	99.5983	0.4546	0.0000	0.0000;
	296	1	1.704	1.4	0	0	1	1.08958849	20.3502345	110	1	1.12	0.95	105.1519	0.7935	0.0000	0.0000;
	297	1	4.582	0.5	0	0	1	1.08208714	16.8798395	110	1	1.12	0.95	108.3629	0.8897	0.0000	0.0000;
	298	1	7.672	0.8	0	0	1	1.09637601	27.3401678	110	1	1.12	0.95	103.1045	0.4966	0.0000	0.0000;
	299	1	4.262	0.7	0	0	1	1.10580396	29.8024418	110	1	1.12	0.95	100.8127	0.0807	0.0000	0.0000;
	300	1	6.18	2.11	0	0	1	1.11077862	29.508824	110	1	1.12	0.95	100.8406	0.3454	0.0000	0.0000;
	301	1	8.205	2.53	0	0	1	1.09364976	27.812275	110	1	1.12	0.95	102.6059	0.7422	0.0000	0.0000;
	302	1	8.524	0.5	0	0	1	1.10891059	17.3726746	110	1	1.12	0.95	106.7614	0.0284	0.0000	0.0000;
	303	1	0	0	0	0	1	1.10862709	29.6163385	110	1	1.12	0.95	100.1854	0.5186	0.0000	0.0000;
	304	1	4.049	1.5	0	0	1	1.06986713	33.8589647	110	1	1.12	0.95	100.4659	0.5767	0.0000	0.0000;
	305	1	7.992	2.72	0	0	1	1.11744408	30.7682513	110	1	1.12	0.95	99.5946	0.4551	0.0000	0.0000;
	306	1	7.779	2.4	0	0	1	1.10035842	28.6864345	110	1	1.12	0.95	101.4401	0.6672	0.0000	0.0000;
	307	1	13.746	4.24	0	0	1	1.11490051	30.3268743	110	1	1.12	0.95	100.0636	0.4614	0.0000	0.0000;
	308	1	12.254	3.78	0	0	1	1.11107622	29.4565984	110	1	1.12	0.95	100.9042	0.3190	0.0000	0.0000;
	309	2	14.147	9.046	0	0	1	1.1094531	29.777049	110	1	1.12	0.95	100.4783	0.4513	0.0000	0.0000;
	310	2	11.759	7	0	0	1	1.1120919	29.4878591	110	1	1.12	0.95	100.8668	0.2807	0.0000	0.0000;
	311	2	15.573	8.3	0	0	1	1.09717451	28.1900844	110	1	1.12	0.95	102.1215	0.6620	0.0000	0.0000;
	312	1	0	0	0	0	1	1.11088824	29.4896767	110	1	1.12	0.95	100.8643	0.3351	0.0000	0.0000;
	313	2	10.354	5.48	0	0	1	1.11555103	30.3148494	110	1	1.12	0.95	100.0548	0.4177	0.0000	0.0000;
	314	2	6.18	5.15	0	0	1	1.10646223	29.6756435	110	1	1.12	0.95	100.3085	0.6103	0.0000	0.0000;
	315	1	8.525	1.2	0	0	1	1.09725587	27.6726192	110	1	1.12	0.95	102.7479	0.5443	0.0000	0.0000;
	316	1	2.131	0.5	0	0	1	1.10500896	17.2195477	110	1	1.12	0.95	107.4463	-0.0968	0.0000	0.0000;
	317	1	4.794	1.5	0	0	1	1.08070812	16.5458627	110	1	1.12	0.95	108.5650	1.2734	0.0000	0.0000;
	318	1	3.996	1.25	0	0	1	1.08137632	16.3929059	110	1	1.12	0.95	108.7834	1.2040	0.0000	0.0000;
	319	1	6.127	1.25	0	0	1	1.08132279	16.3953866	110	1	1.12	0.95	108.7805	1.2043	0.0000	0.0000;
	320	1	6.926	2.5	0	0	1	1.08891144	18.3388871	110	1	1.12	0.95	106.0791	1.2578	0.0000	0.0000;
	321	1	8.205	2.53	0	0	1	1.11543235	30.4332269	110	1	1.12	0.95	99.9440	0.4672	0.0000	0.0000;
	322	2	14.598	4.51	0	0	1	1.11402034	30.1842212	110	1	1.12	0.95	100.2104	0.4569	0.0000	0.0000;
	323	1	12.787	1.5	0	0	1	1.0970242	15.4689176	110	1	1.12	0.95	109.4680	0.1001	0.0000	0.0000;
	324	1	13.959	4.76	0	0	1	1.10654293	29.6985075	110	1	1.12	0.95	100.2999	0.6076	0.0000	0.0000;
	325	1	5.967	1.84	0	0	1	1.10892922	29.7363171	110	1	1.12	0.95	100.5281	0.4659	0.0000	0.0000;
	326	1	5.967	1.84	0	0	1	1.10932135	29.6757736	110	1	1.12	0.95	100.6097	0.4389	0.0000	0.0000;
	327	1	7.459	1	0	0	1	1.09846334	15.6822832	110	1	1.12	0.95	109.1436	0.0911	0.0000	0.0000;
	328	1	13.852	3	0	0	1	1.08203051	17.141309	110	1	1.12	0.95	108.2862	1.0855	0.0000	0.0000;
	329	1	9.057	2.8	0	0	1	1.10933004	29.6727749	110	1	1.12	0.95	100.6131	0.4383	0.0000	0.0000;
	330	1	5.328	2	0	0	1	1.10644291	29.6658477	110	1	1.12	0.95	100.6934	0.3097	0.0000	0.0000;
	331	1	3.197	1	0	0	1	1.10605152	29.6213655	110	1	1.12	0.95	100.7690	0.2895	0.0000	0.0000;
	332	1	26.852	8.29	0	0	1	1.11283844	30.1210706	110	1	1.12	0.95	100.2920	0.4994	0.0000	0.0000;
	333	1	7.459	1	0	0	1	1.09133348	24.6311671	110	1	1.12	0.95	102.2460	0.0339	0.0000	0.0000;
	334	1	2.664	0.8	0	0	1	1.1029254	28.7205398	110	1	1.12	0.95	101.9372	0.5150	0.0000	0.0000;
	335	1	5.86	0.8	0	0	1	1.0812897	17.078286	110	1	1.12	0.95	108.4082	1.0997	0.0000	0.0000;
	336	1	5.434	0.2	0	0	1	1.08097652	13.8959176	110	1	1.12	0.95	110.8036	0.9294	0.0000	0.0000;
	337	1	7.352	2.27	0	0	1	1.1020127	28.9309619	110	1	1.12	0.95	101.1643	0.6453	0.0000	0.0000;