function mpc = case3375wp
%CASE3375WP

%% MATPOWER Case Format : Version 2
mpc.version = '2';

%%-----  Power Flow Data  -----%%
%% system MVA base
mpc.baseMVA = 100;

%% bus data
%	bus_i	type	Pd	Qd	Gs	Bs	area	Vm	Va	baseKV	zone	Vmax	Vmin	lam_P	lam_Q	mu_Vmax	mu_Vmin
mpc.bus = [
	10000	1	0	0	0	0	0	1.04685886	-10.4611512	400	0	1.05	0.95	143.5538	-0.0002	0.0000	0.0000;
	10001	1	0	0	0	0	0	1.04832344	-14.5336677	400	0	1.05	0.95	145.7211	0.0059	0.0000	0.0000;
	10002	1	0	0	0	0	0	1.07239331	-16.4540308	220	0	1.11	0.95	146.5905	-0.0188	0.0000	0.0000;
	10003	1	0	0	0	0	0	1.04516187	-17.4363968	400	0	1.05	0.95	147.2988	-0.0226	0.0000	0.0000;
	10004	1	0	0	0	0	0	1.04397551	-13.5650132	400	0	1.05	0.95	145.4222	-0.0729	0.0000	0.0000;
	10005	1	0	0	0	0	0	1.04426728	-15.9981441	400	0	1.05	0.95	146.5368	-0.0080	0.0000	0.0000;
	10006	1	0	0	0	0	0	1.04068858	-9.33987608	400	0	1.05	0.95	143.3002	-0.0540	0.0000	0.0000;
	10007	1	0	0	0	0	0	1.07309873	-15.3878056	220	0	1.11	0.95	145.8687	-0.0354	0.0000	0.0000;
	10008	1	0	0	0	0	0	1.07063691	-17.5772302	220	0	1.11	0.95	147.4164	-0.0553	0.0000	0.0000;
	10009	1	0	0	0	0	0	1.04427119	-16.7820639	400	0	1.05	0.95	146.9713	-0.0180	0.0000	0.0000;
	10010	1	0	0	0	0	0	1.04903608	-11.5852946	400	0	1.05	0.95	144.5866	-0.0531	0.0000	0.0000;
	10011	1	0	0	0	0	0	1.04460797	-18.1164747	400	0	1.05	0.95	147.6307	-0.0710	0.0000	0.0000;
	10012	1	0	0	0	0	0	1.04460797	-18.1164747	400	0	1.05	0.95	147.6307	-0.0710	0.0000	0.0000;
	10013	1	0	0	0	0	0	1.04563422	-11.7923628	400	0	1.05	0.95	144.6341	-0.0799	0.0000	0.0000;
	10014	1	0	0	0	0	0	1.04583496	-11.8238538	400	0	1.05	0.95	144.6453	-0.0849	0.0000	0.0000;
	10015	1	0	0	0	0	0	1.04461277	-17.7212242	400	0	1.05	0.95	147.4624	-0.0538	0.0000	0.0000;
	10016	1	0	0	0	0	0	1.0458211	-11.7113953	400	0	1.05	0.95	144.5726	-0.0737	0.0000	0.0000;
	10017	1	0	0	0	0	0	1.04575611	-11.7154576	400	0	1.05	0.95	144.5908	-0.0761	0.0000	0.0000;
	10018	1	0	0	0	0	0	1.04573766	-11.7082117	400	0	1.05	0.95	144.5908	-0.0760	0.0000	0.0000;
	10019	1	0	0	0	0	0	1.0458403	-11.8238855	400	0	1.05	0.95	144.6453	-0.0850	0.0000	0.0000;
	10020	1	0	0	0	0	0	1.05	-13.5634657	400	0	1.05	0.95	145.3413	-0.0019	209.5091	0.0000;
	10021	1	0	0	0	0	0	1.07620974	-16.1173076	220	0	1.11	0.95	145.8035	-0.0038	0.0000	0.0000;
	10022	1	0	0	0	0	0	1.07472827	-16.5298336	220	0	1.11	0.95	146.2778	-0.0230	0.0000	0.0000;
	10023	1	0	0	0	0	0	1.04572301	-11.2161315	400	0	1.05	0.95	144.3169	0.0075	0.0000	0.0000;
	10024	1	0	0	0	0	0	1.04547431	-11.3156066	400	0	1.05	0.95	144.3698	0.0087	0.0000	0.0000;
	10025	1	0	0	0	0	0	1.0456313	-11.2627215	400	0	1.05	0.95	144.3433	0.0071	0.0000	0.0000;
	10026	1	0	0	0	0	0	1.04126848	-7.45882417	400	0	1.05	0.95	142.4935	-0.0434	0.0000	0.0000;
	10027	1	0	0	0	0	0	1.04166906	-7.18594715	400	0	1.05	0.95	142.3428	-0.0331	0.0000	0.0000;
	10028	1	0	0	0	0	0	1.0417778	-6.98847386	400	0	1.05	0.95	142.2402	-0.0240	0.0000	0.0000;
	10029	1	0	0	0	0	0	1.04902316	-11.037195	400	0	1.05	0.95	144.3489	-0.0237	0.0000	0.0000;
	10030	1	0	0	0	0	0	1.04901357	-11.0319967	400	0	1.05	0.95	144.3489	-0.0237	0.0000	0.0000;
	10031	1	0	0	0	0	0	1.08669249	-11.0615115	220	0	1.11	0.95	141.7063	0.0070	0.0000	0.0000;
	10032	1	0	0	0	0	0	1.04131547	-7.47432981	400	0	1.05	0.95	142.4889	-0.0428	0.0000	0.0000;
	10033	1	0	0	0	0	0	1.04130204	-7.47422877	400	0	1.05	0.95	142.4889	-0.0424	0.0000	0.0000;
	10034	1	0	0	0	0	0	1.04254631	-13.692617	400	0	1.05	0.95	145.4373	-0.0711	0.0000	0.0000;
	10035	1	0	0	0	0	0	1.07242122	-11.8284576	220	0	1.11	0.95	142.5695	0.4220	0.0000	0.0000;
	10036	1	0	0	0	0	0	1.07248304	-11.8361577	220	0	1.11	0.95	142.5690	0.4231	0.0000	0.0000;
	10037	1	0	0	0	0	0	1.04129761	-7.57228399	400	0	1.05	0.95	142.5479	-0.0501	0.0000	0.0000;
	10038	1	0	0	0	0	0	1.0413432	-7.5803945	400	0	1.05	0.95	142.5481	-0.0488	0.0000	0.0000;
	10039	1	0	0	0	0	0	1.04177382	-7.61797699	400	0	1.05	0.95	142.4980	-0.1581	0.0000	0.0000;
	10040	1	0	0	0	0	0	1.04503398	-12.6678309	400	0	1.05	0.95	144.5550	-0.0251	0.0000	0.0000;
	10041	1	0	0	0	0	0	1.04908042	-11.1707907	400	0	1.05	0.95	144.4011	-0.0297	0.0000	0.0000;
	10042	1	0	0	0	0	0	1.04480387	-18.3837515	400	0	1.05	0.95	147.7397	-0.0849	0.0000	0.0000;
	10043	1	0	0	0	0	0	1.06606493	-13.9234634	220	0	1.11	0.95	145.6878	0.0612	0.0000	0.0000;
	10044	1	0	0	0	0	0	1.07317999	-13.089388	220	0	1.11	0.95	144.9808	-0.0003	0.0000	0.0000;
	10045	1	0	0	0	0	0	1.06730993	-18.438678	220	0	1.11	0.95	148.2180	-0.0188	0.0000	0.0000;
	10046	1	0	0	0	0	0	1.0746878	-16.5293424	220	0	1.11	0.95	146.2778	-0.0205	0.0000	0.0000;
	10047	1	0	0	0	0	0	1.04338374	-19.2620706	400	0	1.05	0.95	148.0856	-0.0410	0.0000	0.0000;
	10048	1	0	0	0	0	0	1.04590532	-10.9560955	400	0	1.05	0.95	143.8458	-0.0044	0.0000	0.0000;
	10049	1	0	0	0	0	0	1.04879942	-11.4577673	400	0	1.05	0.95	144.2686	-0.1637	0.0000	0.0000;
	10050	1	0	0	0	0	0	1.04908042	-11.1707907	400	0	1.05	0.95	144.4011	-0.0297	0.0000	0.0000;
	10051	1	0	0	0	0	0	1.06430685	-18.1885121	220	0	1.11	0.95	148.2767	-0.0371	0.0000	0.0000;
	10052	1	0	0	0	0	0	1.04269235	-16.0256998	400	0	1.05	0.95	146.6319	-0.0517	0.0000	0.0000;
	10053	1	0	0	0	0	0	1.08837902	-10.5027139	220	0	1.11	0.95	141.3289	0.0034	0.0000	0.0000;
	10054	1	0	0	0	0	0	1.08837902	-10.5027139	220	0	1.11	0.95	141.3289	0.0034	0.0000	0.0000;
	10055	1	0	0	0	0	0	1.08012428	-14.4232957	220	0	1.11	0.95	144.4628	-0.0082	0.0000	0.0000;
	10056	1	0	0	0	0	0	1.04165577	-9.59442186	400	0	1.05	0.95	143.4352	-0.0784	0.0000	0.0000;
	10057	1	0	0	0	0	0	1.03957563	-8.5668609	400	0	1.05	0.95	142.9172	-0.1194	0.0000	0.0000;
	10058	1	0	0	0	0	0	1.05993971	-16.3807457	220	0	1.11	0.95	147.2170	0.0208	0.0000	0.0000;
	10059	1	0	0	0	0	0	1.05	-15.4572097	400	0	1.05	0.95	146.3504	-0.2141	1854.8190	0.0000;
	10060	1	0	0	0	0	0	1.0413204	-7.57633933	400	0	1.05	0.95	142.5480	-0.0495	0.0000	0.0000;
	10061	1	0	0	0	0	0	1.04165577	-9.59442186	400	0	1.05	0.95	143.4352	-0.0784	0.0000	0.0000;
	10062	1	0	0	0	0	0	1.04291852	-15.2511628	400	0	1.05	0.95	146.1732	-0.0019	0.0000	0.0000;
	10063	1	0	0	0	0	0	1.04583187	-11.8238415	400	0	1.05	0.95	144.6453	-0.0848	0.0000	0.0000;
	10064	1	0	0	0	0	0	1.06576704	-15.9045844	220	0	1.11	0.95	146.3179	-0.1220	0.0000	0.0000;
	10065	1	0	0	0	0	0	1.04675023	-13.1429464	400	0	1.05	0.95	145.2851	-0.1100	0.0000	0.0000;
	10066	1	0	0	0	0	0	1.04881174	-11.8542194	400	0	1.05	0.95	144.6211	-0.1241	0.0000	0.0000;
	10067	1	0	0	0	0	0	1.06759059	-15.0090521	220	0	1.11	0.95	146.2097	-0.0449	0.0000	0.0000;
	10068	1	0	0	0	0	0	1.04904946	-12.7456978	400	0	1.05	0.95	145.0499	-0.1507	0.0000	0.0000;
	10069	1	0	0	0	0	0	1.06636844	-18.7638938	220	0	1.11	0.95	148.1078	-0.0245	0.0000	0.0000;
	10070	1	0	0	0	0	0	1.04456223	-18.1162254	400	0	1.05	0.95	147.6307	-0.0697	0.0000	0.0000;
	10071	2	16	8	0	0	0	1.07605274	-14.7681781	220	0	1.11	0.95	145.2402	0.0000	0.0000	0.0000;
	10072	1	0	0	0	0	0	1.0858379	-11.2372171	220	0	1.11	0.95	141.9067	0.0106	0.0000	0.0000;
	10073	1	0	0	0	0	1	1.07457939	-12.826826	220	0	1.11	0.95	143.5793	0.1419	0.0000	0.0000;
	10074	1	0	0	0	0	0	1.07372563	-12.8027027	220	0	1.11	0.95	143.5653	0.1854	0.0000	0.0000;
	10075	1	0	0	0	0	0	1.07244266	-13.6351043	220	0	1.11	0.95	144.4436	0.1181	0.0000	0.0000;
	10076	1	0	0	0	0	0	1.04546308	-11.3155442	400	0	1.05	0.95	144.3698	0.0090	0.0000	0.0000;
	10077	1	0	0	0	0	0	1.04546308	-11.3155442	400	0	1.05	0.95	144.3698	0.0090	0.0000	0.0000;
	10078	1	305.5	-14	0	0	0	1.0344416	-7.6196596	400	0	1.05	0.95	142.4510	-0.0931	0.0000	0.0000;
	10079	2	-1529.6	4542.9	0	0	0	1.01322293	0.622653454	400	0	1.05	0.95	138.6837	0.0000	0.0000	0.0000;
	10080	2	-159.1	-181	0	0	0	1.02822533	-4.07919009	400	0	1.05	0.95	140.4958	-0.0000	0.0000	0.0000;
	10081	1	-1078.3	-374.1	0	0	0	1.03443166	-0.19707106	400	0	1.05	0.95	138.8868	-0.6511	0.0000	0.0000;
	10082	1	943.2	310.2	0	0	0	1.0037	-3.77443693	400	0	1.05	0.95	140.6043	0.1651	0.0000	0.0000;
	10083	1	97	26	0	0	0	1.04053239	-4.51194671	400	0	1.05	0.95	140.9937	0.0150	0.0000	0.0000;
	10084	1	0.6	160	0	0	0	1.04149317	-4.31669601	400	0	1.05	0.95	140.9398	0.0376	0.0000	0.0000;
	10085	1	161.6	183.6	0	0	0	1.04040167	-4.46668386	400	0	1.05	0.95	140.9855	0.0368	0.0000	0.0000;
	10086	1	288.6	221.6	0	0	0	1.04039029	-4.46933869	400	0	1.05	0.95	140.9856	0.0368	0.0000	0.0000;
	10087	1	0	0	0	0	0	1.0425511	-4.19602891	400	0	1.05	0.95	140.8987	0.0327	0.0000	0.0000;
	10088	1	0	0	0	0	0	1.08852792	-4.62822989	220	0	1.11	0.95	140.8916	-0.0021	0.0000	0.0000;
	10089	1	0	0	0	0	0	1.08628447	-4.75312354	220	0	1.11	0.95	140.9730	0.0601	0.0000	0.0000;
	10090	2	274.4	279.6	0	0	0	1.04046679	-4.51570909	400	0	1.05	0.95	140.9806	0.0000	0.0000	0.0000;
	10091	1	94.2	111.8	0	0	0	1.03994041	-4.57176321	400	0	1.05	0.95	140.9838	-0.0128	0.0000	0.0000;
	10092	1	0	0	0	0	0	1.08466298	-4.84247373	220	0	1.11	0.95	141.0261	0.0959	0.0000	0.0000;
	10093	1	0	0	0	0	0	1.08732064	-4.69751795	220	0	1.11	0.95	140.9207	0.0159	0.0000	0.0000;
	10094	2	0	0	0	0	0	1.03524468	-3.82621714	400	0	1.05	0.95	140.2118	0.0000	0.0000	0.0000;
	10095	2	4.4	-2590.1	0	0	0	1.02948368	-5.20748214	400	0	1.05	0.95	140.9297	-0.0000	0.0000	0.0000;
	10096	1	488	79.1	0	0	0	1.0211314	-5.42107234	400	0	1.05	0.95	140.9365	0.2309	0.0000	0.0000;
	10097	1	601	147.9	0	0	0	1.02448744	-5.32879439	400	0	1.05	0.95	140.9428	0.0994	0.0000	0.0000;
	10098	1	527	265.1	0	0	0	1.02568399	-4.6111962	400	0	1.05	0.95	140.5033	0.0973	0.0000	0.0000;
	10099	1	0	0	0	0	0	1.00486471	-1.74777538	400	0	1.05	0.95	139.5882	-0.0876	0.0000	0.0000;
	10100	2	0	0	0	0	0	1.04046309	-0.194389703	400	0	1.05	0.95	138.5571	-0.0000	0.0000	0.0000;
	10101	1	0	0	0	0	0	1.04177661	-16.2296857	220	0	1.11	0.95	151.7700	1.5905	0.0000	0.0000;
	10102	1	120	25	0	0	0	1.06229633	-9.03008725	220	0	1.11	0.95	141.8447	0.1008	0.0000	0.0000;
	10103	1	0	0	0	0	0	1.03953248	-2.57279657	400	0	1.05	0.95	139.6666	0.0047	0.0000	0.0000;
	10104	2	200.2	48.7	0	0	0	1.043889	-1.4567397	400	0	1.05	0.95	138.5814	0.0000	0.0000	0.0000;
	10105	1	0	0	0	0	0	1.06455174	-7.17103369	220	0	1.11	0.95	141.9945	0.1247	0.0000	0.0000;
	10106	1	0	0	0	0	0	1.03430745	-3.86983651	400	0	1.05	0.95	140.4157	0.0556	0.0000	0.0000;
	10107	1	0	0	0	0	0	1.04208032	-2.19880047	400	0	1.05	0.95	139.6306	-0.0884	0.0000	0.0000;
	10108	1	0	0	0	0	0	1.04267097	-1.88228501	400	0	1.05	0.95	139.4709	-0.0808	0.0000	0.0000;
	10109	1	0	0	0	0	0	1.04204033	-2.12219015	400	0	1.05	0.95	139.5912	-0.0834	0.0000	0.0000;
	10110	1	0	0	0	0	0	1.04265577	-1.80103008	400	0	1.05	0.95	139.4270	-0.0762	0.0000	0.0000;
	10111	1	0	0	0	0	0	1.02622149	-1.10470815	400	0	1.05	0.95	139.2469	-0.6519	0.0000	0.0000;
	10112	1	0	0	0	0	0	1.10808995	-4.33839148	220	0	1.11	0.95	139.6958	-3.5142	0.0000	0.0000;
	10113	1	0	0	0	0	0	1.01802495	-1.82184027	400	0	1.05	0.95	139.3961	-0.1065	0.0000	0.0000;
	10114	1	0	0	0	0	0	1.09056955	-6.28794677	220	0	1.11	0.95	140.0257	-1.9601	0.0000	0.0000;
	10115	2	0	0	0	0	0	1.00240026	-1.5270165	400	0	1.05	0.95	139.4796	-0.0000	0.0000	0.0000;
	10116	2	0	0	0	0	0	1.00240026	-1.5270165	400	0	1.05	0.95	139.4796	-0.0000	0.0000	0.0000;
	10117	1	0	0	0	0	0	1.03194484	-4.52143994	400	0	1.05	0.95	140.6348	0.0428	0.0000	0.0000;
	10118	2	0	0	0	0	0	1.04075414	0.174364504	400	0	1.05	0.95	138.3650	0.0000	0.0000	0.0000;
	10119	1	0	0	0	0	0	1.01219247	-2.61044136	400	0	1.05	0.95	139.8900	-0.5348	0.0000	0.0000;
	10120	1	0	0	0	0	0	1.03959515	-3.06372276	400	0	1.05	0.95	139.9153	-0.0398	0.0000	0.0000;
	10121	1	80	20	0	0	0	1.05915939	-8.7965094	220	0	1.11	0.95	141.2639	0.4142	0.0000	0.0000;
	10122	1	0	0	0	0	0	1.05016123	-9.12962298	220	0	1.11	0.95	144.0801	0.2014	0.0000	0.0000;
	10123	1	0	0	0	0	0	1.04892804	-3.2318279	400	0	1.05	0.95	139.9523	0.0003	0.0000	0.0000;
	10124	1	0	0	0	0	0	1.05	0.164673747	400	0	1.05	0.95	138.6010	-0.3109	2790.5378	0.0000;
	10125	1	0	0	0	0	0	1.01301246	-3.64341257	400	0	1.05	0.95	140.3454	-0.0199	0.0000	0.0000;
	10126	2	0	0	0	0	0	1.00791898	-2.81147619	400	0	1.05	0.95	139.9681	-0.0000	0.0000	0.0000;
	10127	1	0	0	0	0	0	1.09609631	-6.54839386	220	0	1.11	0.95	140.0122	-4.3079	0.0000	0.0000;
	10128	1	0	0	0	0	0	1.09609631	-6.54839386	220	0	1.11	0.95	140.0122	-4.3079	0.0000	0.0000;
	10129	2	0.2	100	0	0	0	1.0453446	1.12405488	400	0	1.05	0.95	138.1528	-0.0000	0.0000	0.0000;
	10130	1	0	0	0	0	0	1.04542597	1.09759986	400	0	1.05	0.95	138.1730	-0.0082	0.0000	0.0000;
	10131	1	0	0	0	0	0	1.00949652	-3.31369726	400	0	1.05	0.95	140.2456	0.0885	0.0000	0.0000;
	10132	2	0	0	0	0	0	1.029148	-3.92106282	400	0	1.05	0.95	140.6006	-0.0000	0.0000	0.0000;
	10133	1	0	0	0	0	0	1.05	-3.12495196	400	0	1.05	0.95	140.1975	-0.3631	7857.5139	0.0000;
	10134	1	0	0	0	0	0	1.04703903	-3.73309487	400	0	1.05	0.95	140.5324	-0.0511	0.0000	0.0000;
	10135	1	0	0	0	0	0	1.0506382	-8.95847238	220	0	1.11	0.95	141.0768	0.9900	0.0000	0.0000;
	10136	1	0	0	0	0	0	1.071545	-6.85096581	220	0	1.11	0.95	141.4568	-0.2461	0.0000	0.0000;
	10137	1	0	0	0	0	0	1.04057686	-18.7626836	220	0	1.11	0.95	155.5380	1.3204	0.0000	0.0000;
	10138	1	0	0	0	0	0	1.03370904	-4.31556905	400	0	1.05	0.95	140.5669	-0.0541	0.0000	0.0000;
	10139	2	0	0	0	0	0	1.03707435	-1.03117054	400	0	1.05	0.95	138.9777	-0.0000	0.0000	0.0000;
	10140	2	0	0	0	0	0	1.03821401	-0.547675973	400	0	1.05	0.95	138.7202	-0.0000	0.0000	0.0000;
	10141	2	0	0	0	0	0	1.01272309	-0.925463227	400	0	1.05	0.95	138.9260	-0.0000	0.0000	0.0000;
	10142	1	0	0	0	0	0	1.03715479	-4.02497267	400	0	1.05	0.95	140.4065	-0.1044	0.0000	0.0000;
	10143	1	0	0	0	0	0	1.03559994	-2.32187474	400	0	1.05	0.95	139.6035	-0.1576	0.0000	0.0000;
	10144	1	0	0	0	0	0	1.0356193	-2.32077747	400	0	1.05	0.95	139.6025	-0.1587	0.0000	0.0000;
	10145	1	0	0	0	0	0	1.01028203	-3.07204265	400	0	1.05	0.95	140.2236	-0.1211	0.0000	0.0000;
	10146	2	0	0	0	0	0	1.04317276	-2.84813391	220	0	1.11	0.95	140.2038	-0.0000	0.0000	0.0000;
	10147	1	0	0	0	0	0	1.03120962	-4.74147955	400	0	1.05	0.95	140.9805	-0.0986	0.0000	0.0000;
	10148	1	0	0	0	0	0	1.07347755	-6.51770833	220	0	1.11	0.95	141.0070	-0.2645	0.0000	0.0000;
	10149	1	0	0	0	0	0	1.07345845	-6.52058293	220	0	1.11	0.95	141.0103	-0.2632	0.0000	0.0000;
	10150	2	0	0	0	0	0	1.0399478	-2.44664669	400	0	1.05	0.95	139.5989	0.0000	0.0000	0.0000;
	10151	1	0	0	0	0	0	1.04130512	-2.50702154	400	0	1.05	0.95	139.7002	0.0011	0.0000	0.0000;
	10152	1	0	0	0	0	0	1.04651516	-0.383774831	400	0	1.05	0.95	138.8374	-0.1270	0.0000	0.0000;
	10153	1	0	0	0	0	0	1.03083884	-2.15146832	400	0	1.05	0.95	139.5154	-0.1490	0.0000	0.0000;
	10154	1	80	20	0	0	0	1.03619741	-3.5855159	220	0	1.11	0.95	141.2591	0.2371	0.0000	0.0000;
	10155	1	0	0	0	0	0	1.08188285	-6.69788235	220	0	1.11	0.95	140.6622	-1.5441	0.0000	0.0000;
	10156	1	0	0	0	0	0	1.03022659	-4.49752879	400	0	1.05	0.95	140.8316	0.0007	0.0000	0.0000;
	10157	1	0	0	0	0	0	1.08633929	-4.67584854	220	0	1.11	0.95	140.8468	0.0396	0.0000	0.0000;
	10158	1	0	0	0	0	0	1.01375114	-2.26947199	400	0	1.05	0.95	139.6685	-0.7649	0.0000	0.0000;
	10159	1	0	0	0	0	0	1.11	-4.20039986	220	0	1.11	0.95	139.5109	-3.5829	18443.0084	0.0000;
	10160	1	0	0	0	0	0	1.06523227	-19.9034	220	0	1.11	0.95	156.8775	-0.0006	0.0000	0.0000;
	10161	1	0	0	0	0	0	1.02088101	-4.02853428	400	0	1.05	0.95	140.7548	-0.1923	0.0000	0.0000;
	10162	1	0	0	0	0	0	1.05921018	-8.25054587	220	0	1.11	0.95	142.7847	-0.1374	0.0000	0.0000;
	10163	1	0	0	0	0	0	1.09451486	-6.7609012	220	0	1.11	0.95	139.9876	-6.7429	0.0000	0.0000;
	10164	1	0	0	0	0	0	1.02862513	-4.1228048	400	0	1.05	0.95	140.5218	-0.0111	0.0000	0.0000;
	10165	1	0	0	0	0	0	1.03261709	-5.0809905	400	0	1.05	0.95	141.0428	-0.0235	0.0000	0.0000;
	10166	1	0	0	0	0	0	1.06961468	-8.06628885	220	0	1.11	0.95	140.4821	-0.0721	0.0000	0.0000;
	10167	1	0	0	0	0	0	1.02907158	-4.41297073	400	0	1.05	0.95	140.8377	-0.0197	0.0000	0.0000;
	10168	1	0	0	0	0	0	1.02907158	-4.41297073	400	0	1.05	0.95	140.8377	-0.0197	0.0000	0.0000;
	10169	1	0	0	0	0	0	1.02941599	-4.36645674	400	0	1.05	0.95	140.8094	-0.0281	0.0000	0.0000;
	10170	1	0	0	0	0	0	1.02941599	-4.36645674	400	0	1.05	0.95	140.8094	-0.0281	0.0000	0.0000;
	10171	2	-104.8	-159	0	0	0	1.02910973	-3.82161051	400	0	1.05	0.95	140.2104	-0.0000	0.0000	0.0000;
	10172	1	247.4	-57.5	0	0	0	1.02950885	-5.21201047	400	0	1.05	0.95	140.9300	-0.0003	0.0000	0.0000;
	10173	1	247.4	-57.5	0	0	0	1.02950885	-5.21201047	400	0	1.05	0.95	140.9300	-0.0003	0.0000	0.0000;
	10174	1	371.5	403.5	0	0	0	1.02047249	-5.44259106	400	0	1.05	0.95	140.9507	0.2515	0.0000	0.0000;
	10176	2	-249.9	162.6	0	0	0	1.02954107	-3.9798729	400	0	1.05	0.95	140.0956	0.0000	0.0000	0.0000;
	10177	2	-249.9	162.6	0	0	0	1.02954107	-3.9798729	400	0	1.05	0.95	140.0956	0.0000	0.0000	0.0000;
	10178	1	52.5	207.2	0	0	0	1.02730959	-10.1203515	400	0	1.05	0.95	144.0858	0.3135	0.0000	0.0000;
	10179	1	379.5	54.6	0	0	0	1.03894794	-12.8683292	400	0	1.05	0.95	144.9038	0.0195	0.0000	0.0000;
	10180	1	73.6	-95.6	0	0	0	1.08763825	-16.3730079	220	0	1.11	0.95	146.6753	-1.5423	0.0000	0.0000;
	10181	1	73.6	-95.6	0	0	0	1.08763825	-16.3730079	220	0	1.11	0.95	146.6753	-1.5423	0.0000	0.0000;
	10182	1	107.2	-44.4	0	0	0	1.05	-12.3052951	400	0	1.05	0.95	144.6550	-0.4378	4649.2925	0.0000;
	10183	1	86	8	0	0	0	1.04861832	-10.1468309	400	0	1.05	0.95	143.8733	-0.1044	0.0000	0.0000;
	10184	1	70	49	0	0	0	1.05077205	-14.0464604	220	0	1.11	0.95	145.5403	0.4433	0.0000	0.0000;
	10185	1	0	0	0	0	0	1.04939986	-12.4119351	400	0	1.05	0.95	145.0569	-0.3422	0.0000	0.0000;
	10186	2	0	0	0	0	0	1.08934111	-7.28458501	220	0	1.11	0.95	141.9224	0.0000	0.0000	0.0000;
	10187	2	0	0	0	0	0	1.0894141	-7.25161794	220	0	1.11	0.95	141.9142	0.0000	0.0000	0.0000;
	10188	2	0	0	0	0	0	1.0459408	-8.81283622	400	0	1.05	0.95	143.3574	-0.0000	0.0000	0.0000;
	10189	2	10.2	0	0	0	0	1.04561921	-10.0382168	400	0	1.05	0.95	143.7553	-0.0000	0.0000	0.0000;
	10190	2	0	0	0	0	0	1.04289258	-9.6601042	400	0	1.05	0.95	143.8143	-0.0000	0.0000	0.0000;
	10191	2	0	0	0	0	0	1.04290178	-9.65471834	400	0	1.05	0.95	143.8138	-0.0000	0.0000	0.0000;
	10192	2	0	0	0	0	0	1.04091628	-10.8360013	220	0	1.11	0.95	143.4094	0.0000	0.0000	0.0000;
	10193	1	0	0	0	0	0	1.04091195	-10.8383115	220	0	1.11	0.95	143.4094	-0.0000	0.0000	0.0000;
	10194	2	0	0	0	0	0	1.03587234	-9.15765673	400	0	1.05	0.95	144.0671	-0.0000	0.0000	0.0000;
	10195	1	0	0	0	0	0	1.03664493	-9.1966623	400	0	1.05	0.95	144.0828	-0.0206	0.0000	0.0000;
	10196	2	0	0	0	0	0	1.04095388	-12.3481848	400	0	1.05	0.95	144.7163	-0.0000	0.0000	0.0000;
	10197	1	295	51.9	0	0	0	1.04399868	-11.9426948	400	0	1.05	0.95	144.7478	-0.1061	0.0000	0.0000;
	10198	1	0	0	0	0	0	1.04668614	-10.5401512	400	0	1.05	0.95	143.9557	-0.0408	0.0000	0.0000;
	10199	1	308	40	0	0	0	1.08154962	-9.77712924	220	0	1.11	0.95	143.2055	0.0505	0.0000	0.0000;
	10200	1	0	0	0	0	0	1.0815633	-9.76041972	220	0	1.11	0.95	143.2055	0.0509	0.0000	0.0000;
	10201	1	0	0	0	0	0	1.0269756	-10.5933573	400	0	1.05	0.95	144.7533	-0.0010	0.0000	0.0000;
	10202	1	103	28	0	0	0	1.03013135	-12.3673422	220	0	1.11	0.95	144.5844	0.2443	0.0000	0.0000;
	10203	1	0	0	0	0	0	1.03013135	-12.3673422	220	0	1.11	0.95	144.5844	0.2443	0.0000	0.0000;
	10204	1	170	33	0	0	0	1.04081763	-10.1356231	400	0	1.05	0.95	144.0359	0.0224	0.0000	0.0000;
	10205	1	154	6	0	0	0	1.04863319	-12.4077907	400	0	1.05	0.95	145.0570	-0.3212	0.0000	0.0000;
	10206	1	150	15	0	0	0	1.02866	-17.5102833	220	0	1.11	0.95	148.9875	0.3843	0.0000	0.0000;
	10207	1	113	15	0	0	0	1.04393257	-10.9923696	400	0	1.05	0.95	144.7203	-0.2077	0.0000	0.0000;
	10208	1	65	11	0	0	0	1.04569875	-11.8769763	400	0	1.05	0.95	144.5852	-0.0740	0.0000	0.0000;
	10209	1	60	10	0	0	0	1.05642915	-14.7415881	220	0	1.11	0.95	146.4096	0.2513	0.0000	0.0000;
	10210	1	204	16.9	0	0	0	1.04550722	-11.700698	400	0	1.05	0.95	144.9431	-0.2329	0.0000	0.0000;
	10211	1	142	10.9	0	0	0	1.06708516	-14.0934001	220	0	1.11	0.95	146.0975	0.1370	0.0000	0.0000;
	10212	1	83	19	0	0	0	1.04143256	-15.4740441	220	0	1.11	0.95	146.3081	0.3075	0.0000	0.0000;
	10213	1	189	35	0	0	0	1.03547776	-12.0592994	400	0	1.05	0.95	145.2140	-0.1532	0.0000	0.0000;
	10214	1	17	6	0	0	0	1.04837632	-12.3362509	400	0	1.05	0.95	144.8154	-0.1298	0.0000	0.0000;
	10215	1	0	0	0	0	0	1.04908639	-12.2121637	400	0	1.05	0.95	144.9182	-0.2562	0.0000	0.0000;
	10216	1	2	-6	0	0	0	1.04553067	-14.810578	220	0	1.11	0.95	145.7397	0.2079	0.0000	0.0000;
	10217	1	88	-4	0	0	0	1.05	-11.9448189	400	0	1.05	0.95	144.7079	-0.2941	2161.5354	0.0000;
	10218	1	0	0	0	0	0	1.04268342	-9.90148619	400	0	1.05	0.95	143.9126	-0.0035	0.0000	0.0000;
	10219	1	0	0	0	0	0	1.04268731	-9.89756543	400	0	1.05	0.95	143.9119	-0.0033	0.0000	0.0000;
	10220	1	0	0	0	0	0	1.03662948	-9.19658309	400	0	1.05	0.95	144.0828	-0.0202	0.0000	0.0000;
	10221	1	0	0	0	0	0	1.03889545	-8.37802251	400	0	1.05	0.95	143.7256	-0.0129	0.0000	0.0000;
	10222	1	50	20	0	0	0	1.03225143	-11.9919346	220	0	1.11	0.95	144.2990	0.2191	0.0000	0.0000;
	10223	2	-338.1	155.6	0	0	0	1.04076999	-7.55959408	400	0	1.05	0.95	143.3771	0.0000	0.0000	0.0000;
	10225	2	195.7	126.6	0	0	0	1.06256551	-13.5725236	110	0	1.12	0.95	143.9695	0.0000	0.0000	0.0000;
	10226	2	141.9	93.1	0	0	0	1.06428286	-10.4479317	110	0	1.12	0.95	143.5521	0.0000	0.0000	0.0000;
	10227	2	234.5	57.5	0	0	0	1.10423936	-16.9305783	110	0	1.12	0.95	145.9880	0.0000	0.0000	0.0000;
	10228	2	388.2	98.2	0	0	0	1.06242991	-26.4373322	110	0	1.12	0.95	148.1127	0.0000	0.0000	0.0000;
	10229	2	84.7	29.1	0	0	0	1.06890442	-17.9106936	110	0	1.12	0.95	146.7472	0.0000	0.0000	0.0000;
	10230	2	0	0	0	0	0	1.07302197	-12.0854669	110	0	1.12	0.95	141.9031	0.0000	0.0000	0.0000;
	10231	1	194.4	43.4	0	0	0	1.01823231	-23.5040938	110	0	1.12	0.95	148.4524	0.1426	0.0000	0.0000;
	10232	2	195.7	43.3	0	0	0	1.01969451	-23.3378191	110	0	1.12	0.95	148.4131	0.0000	0.0000	0.0000;
	10233	2	513.7	92.5	0	0	0	1.04669523	-18.6911776	110	0	1.12	0.95	145.9373	0.0000	0.0000	0.0000;
	10234	2	455.4	108.8	0	0	0	1.09120702	-28.4544831	110	0	1.12	0.95	147.8161	0.0000	0.0000	0.0000;
	10235	2	61.8	19.6	0	0	0	1.080784	-18.1912058	110	0	1.12	0.95	146.0585	0.0000	0.0000	0.0000;
	10236	2	260.8	80.8	0	0	0	1.07896774	-10.7692166	110	0	1.12	0.95	143.4650	0.0000	0.0000	0.0000;
	10237	2	199.4	65.6	0	0	0	1.08009646	-18.2169936	110	0	1.12	0.95	146.0887	0.0000	0.0000	0.0000;
	10238	2	395	96.4	0	0	0	1.00799976	-23.5502424	110	0	1.12	0.95	147.4132	0.0000	0.0000	0.0000;
	10239	2	344.4	71	0	0	0	1.06241122	-14.6127895	110	0	1.12	0.95	145.0610	0.0000	0.0000	0.0000;
	10240	2	0	0	0	0	0	1.06647398	-9.76958098	110	0	1.12	0.95	142.9598	0.0000	0.0000	0.0000;
	10241	1	0	0	0	0	0	1.070055	-10.6735315	110	0	1.12	0.95	141.4145	0.0473	0.0000	0.0000;
	10242	1	0	0	0	0	0	1.07394753	-17.2477071	110	0	1.12	0.95	145.6134	-0.0049	0.0000	0.0000;
	10243	1	0	0	0	0	0	1.06273924	-13.5732206	110	0	1.12	0.95	143.9695	-0.0035	0.0000	0.0000;
	10244	1	0	0	0	0	0	1.06613457	-8.81245807	110	0	1.12	0.95	142.6000	0.0255	0.0000	0.0000;
	10245	1	185.4	59.7	0	0	0	1.07922281	-18.2319471	110	0	1.12	0.95	146.1209	0.0524	0.0000	0.0000;
	10246	2	4	2	0	0	0	1.0393732	-8.09759765	14	0	1.12	0.95	144.4497	-0.0000	0.0000	0.0000;
	10247	2	14	10	0	0	0	1.12	-8.13026085	14	0	1.12	0.95	141.1078	-0.0000	178.0973	0.0000;
	10248	2	14	10	0	0	0	1.11999999	-5.6819749	14	0	1.12	0.95	142.2213	0.0000	104.0942	0.0000;
	10249	2	5	3	0	0	0	1.00162675	-15.2395724	23	0	1.12	0.95	147.2608	-0.0000	0.0000	0.0000;
	10250	2	28	17	0	0	0	1.04051296	-6.75409598	16	0	1.12	0.95	144.0412	-0.0000	0.0000	0.0000;
	10251	2	28	17	0	0	0	1.04006113	-6.75523914	16	0	1.12	0.95	144.0593	-0.0000	0.0000	0.0000;
	10252	2	28	17	0	0	0	1.04005417	-6.74788601	16	0	1.12	0.95	144.0593	-0.0000	0.0000	0.0000;
	10253	2	26.7	5.9	0	0	0	1.01522456	-15.7637651	15	0	1.12	0.95	145.7089	0.0000	0.0000	0.0000;
	10254	2	23	10	0	0	0	1.05018343	-9.48149599	20	0	1.12	0.95	144.9187	0.0000	0.0000	0.0000;
	10255	2	4	2	0	0	0	1.03985904	-12.6515906	16	0	1.12	0.95	145.6805	0.0000	0.0000	0.0000;
	10256	2	30	10	0	0	0	1.11985666	-8.1631387	16	0	1.12	0.95	144.0905	0.0000	0.2134	0.0000;
	10257	2	15	5	0	0	0	1.11805872	-9.7342612	16	0	1.12	0.95	144.2300	0.0000	0.0000	0.0000;
	10258	2	20	8	0	0	0	1.10524588	-4.65425487	16	0	1.12	0.95	142.1982	-0.0000	0.0000	0.0000;
	10259	2	30	14	0	0	0	0.981848868	-3.53728622	17	0	1.12	0.95	141.9564	0.0000	0.0000	0.0000;
	10260	2	45	21	0	0	0	1.10941239	-4.13011468	17	0	1.12	0.95	141.9373	0.0000	0.0000	0.0000;
	10261	2	80	40	0	0	0	0.995800044	-7.94904734	25	0	1.12	0.95	144.1182	0.0000	0.0000	0.0000;
	10262	2	80	40	0	0	0	0.995795802	-7.94381186	25	0	1.12	0.95	144.1182	0.0000	0.0000	0.0000;
	10263	2	10	4	0	0	0	1.09205481	-8.26999957	14	0	1.12	0.95	141.2857	0.0000	0.0000	0.0000;
	10264	2	30	10	0	0	0	1.00558633	-3.84435708	17	0	1.12	0.95	142.1258	-0.0000	0.0000	0.0000;
	10265	2	30	10	0	0	0	1.10579729	-4.08599927	16	0	1.12	0.95	142.1512	-0.0000	0.0000	0.0000;
	10266	2	298.7	37.9	0	0	0	1.04403283	-16.925996	110	0	1.12	0.95	145.7701	-0.0000	0.0000	0.0000;
	10267	2	198.4	53.4	0	0	0	1.08127948	-15.3665933	110	0	1.12	0.95	144.8075	0.0000	0.0000	0.0000;
	10268	2	114.8	20.4	0	0	0	1.06383651	-13.3222834	110	0	1.12	0.95	144.4432	0.0000	0.0000	0.0000;
	10269	2	275.2	110.6	0	0	0	1.07441309	-17.0277023	110	0	1.12	0.95	145.4153	0.0000	0.0000	0.0000;
	10270	2	61.8	23.7	0	0	0	1.05969795	-12.9761672	110	0	1.12	0.95	144.5619	0.0000	0.0000	0.0000;
	10271	2	385.3	67	0	0	0	1.06486243	-21.3769158	110	0	1.12	0.95	148.8117	0.0000	0.0000	0.0000;
	10272	2	104.1	17.5	0	0	0	1.07191825	-18.6355969	110	0	1.12	0.95	146.6665	0.0000	0.0000	0.0000;
	10273	2	541	91.4	0	0	0	1.02420998	-23.316563	110	0	1.12	0.95	148.5267	0.0000	0.0000	0.0000;
	10274	2	256.3	100.7	0	0	0	1.06483242	-13.9327295	110	0	1.12	0.95	144.1464	0.0000	0.0000	0.0000;
	10275	2	0	0	0	0	0	1.06178239	-12.0720042	110	0	1.12	0.95	143.9584	0.0000	0.0000	0.0000;
	10276	2	164.4	34	0	0	0	1.06029879	-18.9270841	110	0	1.12	0.95	148.4189	0.0000	0.0000	0.0000;
	10277	2	616.8	133.2	0	0	0	1.06236075	-19.9460649	110	0	1.12	0.95	146.8784	0.0000	0.0000	0.0000;
	10278	2	15	10	0	0	0	1.11342981	-7.18213789	12	0	1.12	0.95	141.1477	0.0000	0.0000	0.0000;
	10279	2	15	10	0	0	0	1.11342981	-7.18213789	12	0	1.12	0.95	141.1477	0.0000	0.0000	0.0000;
	10280	1	149.8	37	0	0	0	1.05730553	-12.8480746	110	0	1.12	0.95	143.6523	-0.0115	0.0000	0.0000;
	10281	2	106	22.4	0	0	0	1.07857986	-17.0032453	110	0	1.12	0.95	144.9555	0.0000	0.0000	0.0000;
	10282	2	363.9	100.1	0	0	0	1.06770015	-21.4527937	110	0	1.12	0.95	147.6110	0.0000	0.0000	0.0000;
	10283	1	0	0	0	0	0	1.01450426	-23.3378191	13	0	1.12	0.95	148.4131	0.0000	0.0000	0.0000;
	10284	2	1122.7	280.7	0	0	0	1.12	-19.6529549	110	0	1.12	0.95	146.5968	0.0000	746.1920	0.0000;
	10285	2	155.7	32.1	0	0	0	1.05753365	-13.9944406	110	0	1.12	0.95	144.8641	-0.0000	0.0000	0.0000;
	10288	2	197.5	44.6	0	0	0	1.03372633	-16.7795915	110	0	1.12	0.95	145.5151	-0.0000	0.0000	0.0000;
	10289	2	124.6	23.4	0	0	0	1.0526138	-17.49043	110	0	1.12	0.95	146.6061	-0.0000	0.0000	0.0000;
	10290	2	148.9	31.1	0	0	0	1.06115258	-22.3543536	110	0	1.12	0.95	148.3633	0.0000	0.0000	0.0000;
	10291	2	264.7	53.5	0	0	0	1.08349476	-23.3522538	110	0	1.12	0.95	148.2653	0.0000	0.0000	0.0000;
	10292	2	364.8	158.7	0	0	0	1.08664779	-11.9230564	110	0	1.12	0.95	142.0239	0.0000	0.0000	0.0000;
	10293	2	54.6	21.6	0	0	0	1.07368983	-17.2467386	110	0	1.12	0.95	145.6134	0.0000	0.0000	0.0000;
	10294	2	17.5	3.9	0	0	1	1.0880473	-13.094205	110	0	1.12	0.95	143.6267	0.0000	0.0000	0.0000;
	10295	2	344.4	104	0	0	0	0.995169969	-16.6399079	110	0	1.12	0.95	144.8965	0.0000	0.0000	0.0000;
	10296	2	275.3	104.1	0	0	0	1.08621673	-17.3882938	110	0	1.12	0.95	144.7679	0.0000	0.0000	0.0000;
	10297	1	163.6	2.3	0	0	0	1.11082083	-6.01961171	110	0	1.12	0.95	140.3975	-0.3479	0.0000	0.0000;
	10298	1	90.7	61	0	0	0	1.07130294	-5.81489631	110	0	1.12	0.95	141.1146	0.1582	0.0000	0.0000;
	10299	1	314	87	0	0	0	1.04699941	-7.16902281	110	0	1.12	0.95	139.9592	0.0542	0.0000	0.0000;
	10300	1	34	13	0	0	0	1.04344394	-10.3551936	110	0	1.12	0.95	142.6784	0.6512	0.0000	0.0000;
	10301	1	107	-22	0	0	0	1.07831586	-6.32660871	110	0	1.12	0.95	139.9823	0.1303	0.0000	0.0000;
	10302	1	161	58	0	0	0	1.09212178	-9.8643506	110	0	1.12	0.95	142.3472	0.2712	0.0000	0.0000;
	10303	1	161.5	37	0	0	0	1.05520424	-9.43892593	110	0	1.12	0.95	140.8186	0.1903	0.0000	0.0000;
	10304	1	161.5	37	0	0	0	1.05520424	-9.43892593	110	0	1.12	0.95	140.8186	0.1903	0.0000	0.0000;
	10305	1	232	-45.9	0	0	0	1.10762213	-7.20215148	110	0	1.12	0.95	139.9833	-0.1297	0.0000	0.0000;
	10306	1	143	58.1	0	0	0	1.09141201	-5.68389628	110	0	1.12	0.95	139.4646	-0.5424	0.0000	0.0000;
	10307	1	111.5	32.5	0	0	0	1.07241242	-9.38311576	110	0	1.12	0.95	139.6485	-3.5295	0.0000	0.0000;
	10308	1	111.5	32.5	0	0	0	1.09137309	-6.81417798	110	0	1.12	0.95	139.6732	-3.5188	0.0000	0.0000;
	10309	1	124	8.1	0	0	0	1.06290216	-4.7489199	110	0	1.12	0.95	139.6431	-0.0772	0.0000	0.0000;
	10310	1	28.5	6	0	0	0	1.04047701	-11.0678769	110	0	1.12	0.95	143.1959	0.9404	0.0000	0.0000;
	10311	1	28.5	6	0	0	0	1.04047701	-11.0678769	110	0	1.12	0.95	143.1959	0.9404	0.0000	0.0000;
	10312	1	135	74	0	0	0	1.0476426	-7.68357612	110	0	1.12	0.95	140.9320	0.2282	0.0000	0.0000;
	10313	1	0	0	0	0	0	1.04462142	-4.40899183	110	0	1.12	0.95	139.1641	0.0740	0.0000	0.0000;
	10314	1	0	0	0	0	0	1.04462773	-4.40736422	110	0	1.12	0.95	139.1644	0.0740	0.0000	0.0000;
	10315	1	110	34	0	0	0	1.09329096	-3.36189435	110	0	1.12	0.95	138.6280	0.1156	0.0000	0.0000;
	10316	1	110	34	0	0	0	1.09314309	-3.36237346	110	0	1.12	0.95	138.6280	0.1158	0.0000	0.0000;
	10317	1	100	32	0	0	0	1.09358755	-3.36093702	110	0	1.12	0.95	138.6281	0.1150	0.0000	0.0000;
	10318	1	37	35	0	0	0	1.05289103	-3.99568702	110	0	1.12	0.95	139.9837	-0.4395	0.0000	0.0000;
	10319	1	93	80	0	0	0	1.06152457	-6.21564569	110	0	1.12	0.95	140.0384	0.4428	0.0000	0.0000;
	10320	1	30	18	0	0	0	1.07961099	-4.06301635	110	0	1.12	0.95	139.9824	0.0021	0.0000	0.0000;
	10321	1	189	38	0	0	0	1.03523824	-12.2491127	110	0	1.12	0.95	144.4769	0.3071	0.0000	0.0000;
	10322	1	78.5	21	0	0	0	1.07976277	-6.76039671	110	0	1.12	0.95	140.2707	0.1072	0.0000	0.0000;
	10323	1	78.5	21	0	0	0	1.07976277	-6.76039671	110	0	1.12	0.95	140.2707	0.1072	0.0000	0.0000;
	10324	1	190	22	0	0	0	1.09004254	-7.06123522	110	0	1.12	0.95	140.6316	0.0330	0.0000	0.0000;
	10325	1	42.6	31.4	0	0	0	1.03661058	-4.33299145	110	0	1.12	0.95	140.0737	0.0823	0.0000	0.0000;
	10326	1	170.4	125.6	0	0	0	1.05016408	-5.8344682	110	0	1.12	0.95	140.2109	0.2173	0.0000	0.0000;
	10327	1	106	50	0	0	0	1.02221904	-10.3546417	110	0	1.12	0.95	144.7126	2.6423	0.0000	0.0000;
	10328	1	94	60.6	0	0	0	1.01597825	-6.7399045	110	0	1.12	0.95	140.5012	0.2759	0.0000	0.0000;