function mpc = case9241pegase
%CASE9241PEGASE

%% MATPOWER Case Format : Version 2
mpc.version = '2';

%%-----  Power Flow Data  -----%%
%% system MVA base
mpc.baseMVA = 100;

%% bus data
%	bus_i	type	Pd	Qd	Gs	Bs	area	Vm	Va	baseKV	zone	Vmax	Vmin	lam_P	lam_Q	mu_Vmax	mu_Vmin
mpc.bus = [
	1	1	378.4	98.5	0	16.61	0	1.01831549	-8.5298632	220	6	1.1	0.9	1.0208	0.0015	0.0000	0.0000;
	2	2	0	0	0	0	0	1.05831783	-3.29244528	154	1	1.1	0.9	1.0012	-0.0030	0.0000	0.0000;
	3	1	151	48.8	0	4.69	0	1.03450205	-9.46108372	220	5	1.1	0.9	1.0282	0.0066	0.0000	0.0000;
	4	1	171.41	23.4	0	2.1	0	1.05856719	-5.55223569	220	5	1.1	0.9	1.0143	0.0031	0.0000	0.0000;
	5	1	45.95	14	0	13.34	0	1.00644968	-11.0025716	220	6	1.1	0.9	1.0369	0.0021	0.0000	0.0000;
	6	2	0	0	0	0	0	1.07159445	-3.25795624	380	6	1.1	0.9	1.0096	0.0000	0.0000	0.0000;
	7	1	31.03	10.3	0	0.65	0	0.983707641	-13.2361829	110	21	1.1	0.9	1.0824	0.0355	0.0000	0.0000;
	8	2	0	0	0	0	0	1.06317845	-3.07740682	154	1	1.1	0.9	1.0000	0.0000	0.0000	0.0000;
	9	1	14.3	2	0	1.91	0	1.05958369	-3.11675959	154	1	1.1	0.9	0.9965	0.0012	0.0000	0.0000;
	10	1	134	24.7	0	12.44	0	1.06407502	-17.5989254	220	5	1.1	0.9	1.0426	-0.0082	0.0000	0.0000;
	11	1	0	0	0	0	0	0.980705454	-13.9732426	150	9	1.1	0.9	1.0419	0.0381	0.0000	0.0000;
	12	1	-6.11	2	0	0.47	0	1.05047256	-8.84290362	150	9	1.1	0.9	0.9892	-0.0197	0.0000	0.0000;
	13	1	-22.74	-8.32	0	6.5	0	1.01390121	-7.46896107	220	6	1.1	0.9	1.0145	0.0007	0.0000	0.0000;
	14	1	13.5	14.8	0	132.435168	0	1.14094283	-3.12733556	380	9	1.3	0.7	1.0070	0.0011	0.0000	0.0000;
	15	1	59.67	26.7	0	12.84	0	1.06515498	-13.7263279	220	4	1.1	0.9	1.0325	-0.0001	0.0000	0.0000;
	16	1	30.6	4.3	0	5.15	0	1.05289386	-6.23983979	154	1	1.1	0.9	1.0174	-0.0022	0.0000	0.0000;
	17	1	67.68	12.1	0	2.18	0	0.999238725	-10.5486437	220	3	1.1	0.9	1.0247	0.0044	0.0000	0.0000;
	18	2	0	0	0	0	0	1.03049538	-5.22948886	380	3	1.1	0.9	1.0134	0.0000	0.0000	0.0000;
	19	1	25.33	7.5	0	2.39	0	1.01532379	-10.7723465	110	12	1.1	0.9	1.0517	0.0118	0.0000	0.0000;
	20	1	1.4	0.2	0	4.93	0	1.0612682	-3.5518334	154	1	1.1	0.9	0.9970	0.0010	0.0000	0.0000;
	21	1	161.2	39.3	0	30.71	0	1.05977106	-16.1594948	220	5	1.1	0.9	1.0381	-0.0022	0.0000	0.0000;
	22	1	0	-0	0	0.85	0	1.07596688	-11.1434151	220	5	1.1	0.9	1.0194	0.0035	0.0000	0.0000;
	23	1	19.62	7.1	0	1.15	0	1.05788658	-10.0869077	110	19	1.1	0.9	1.0442	0.0070	0.0000	0.0000;
	24	1	17.22	5.7	0	1.22	0	0.972063065	-12.8573259	110	21	1.1	0.9	1.0867	0.0273	0.0000	0.0000;
	25	2	0	0	0	0	0	1.03249675	-6.11888609	220	3	1.1	0.9	1.0036	0.0000	0.0000	0.0000;
	26	1	167.3	54.8	0	110.54	0	1.0681099	-1.15396307	380	5	1.1	0.9	1.0011	0.0002	0.0000	0.0000;
	27	1	-0	-0	0	14.82	0	1.06417398	-0.720678703	380	13	1.1	0.9	1.0044	-0.0004	0.0000	0.0000;
	28	1	0	0	0	0	0	1.01143803	-13.3113701	150	9	1.1	0.9	1.0427	0.0240	0.0000	0.0000;
	29	1	152.9	49.4	0	27.65	0	1.04087703	-3.29807182	380	5	1.1	0.9	1.0060	0.0008	0.0000	0.0000;
	30	1	-0	0	0	0.56	0	1.03570838	-10.7080273	150	9	1.1	0.9	1.0170	0.0115	0.0000	0.0000;
	31	1	69.68	43.2	0	6.3	0	0.898170738	-17.8830387	150	9	1.3	0.7	1.0927	0.1049	0.0000	0.0000;
	32	2	0	0	0	0	0	1.03498576	-6.37534078	220	4	1.1	0.9	1.0125	-0.0018	0.0000	0.0000;
	33	2	0	0	0	0	0	1.05645127	-5.25533561	220	4	1.1	0.9	0.9991	0.0003	0.0000	0.0000;
	34	1	13.52	4.9	0	1.8	0	1.06933186	-7.25312409	110	19	1.1	0.9	1.0148	0.0029	0.0000	0.0000;
	35	1	10.51	3.5	0	0.31	0	1.03404619	-9.4840372	110	12	1.1	0.9	1.0432	0.0095	0.0000	0.0000;
	36	1	-0	-0	0.12	15.34	0	1.07375977	-4.57023117	220	19	1.1	0.9	1.0118	-0.0018	0.0000	0.0000;
	37	1	9.21	2.6	0	2	0	0.99007925	-10.4686198	110	18	1.1	0.9	1.0356	0.0099	0.0000	0.0000;
	38	1	42.75	12.8	0	13.3	0	1.03044799	-6.14820911	220	8	1.1	0.9	1.0016	0.0030	0.0000	0.0000;
	39	2	0	0	0	0	0	1.02204113	-5.29194107	150	10	1.1	0.9	1.0000	-0.0000	0.0000	0.0000;
	40	1	16.02	4.54	0	0.1	0	1.01965253	-10.465583	110	23	1.1	0.9	1.0600	0.0203	0.0000	0.0000;
	41	1	27.9	4	0	4.23	0	1.08545365	-7.64870681	154	1	1.1	0.9	1.0229	-0.0008	0.0000	0.0000;
	42	1	20.82	7.9	0	26.89	0	1.08582639	-6.81748093	380	4	1.1	0.9	1.0135	-0.0017	0.0000	0.0000;
	43	1	12.6	1.8	0	2.03	0	1.07822683	-3.31253971	154	1	1.1	0.9	1.0029	0.0000	0.0000	0.0000;
	44	1	-0	0	0	7.27	0	1.07095396	-15.6216034	220	5	1.1	0.9	1.0318	-0.0085	0.0000	0.0000;
	45	1	10.11	3.7	0	0.81	0	1.07334292	-7.14795782	110	19	1.1	0.9	1.0143	-0.0015	0.0000	0.0000;
	46	1	10.01	2.7	0	1.14	0	0.976687634	-10.8467123	110	18	1.1	0.9	1.0461	0.0116	0.0000	0.0000;
	47	1	6.31	0	0	0.67	0	1.01408775	-7.20626353	110	18	1.1	0.9	1.0391	0.0068	0.0000	0.0000;
	48	1	2.9	0.9	0	0.6	0	1.06008269	-7.00095843	110	15	1.1	0.9	1.0302	0.0088	0.0000	0.0000;
	49	2	0	0	0	0	0	1.02594069	-5.51212183	220	6	1.1	0.9	1.0082	-0.0000	0.0000	0.0000;
	50	1	48.8	6.9	0	8.71	0	1.07833281	-7.6584023	154	1	1.1	0.9	1.0189	-0.0008	0.0000	0.0000;
	51	2	0	0	0	0	0	1.06879081	-5.29745854	220	4	1.1	0.9	1.0029	0.0001	0.0000	0.0000;
	52	1	127.6	31.8	0	20.51	0	1.05729598	-13.9064739	150	8	1.1	0.9	1.0316	0.0059	0.0000	0.0000;
	53	1	48.65	16.1	0	7.14	0	1.08954145	-1.90306094	220	5	1.1	0.9	1.0010	0.0001	0.0000	0.0000;
	54	1	110.5	-26.8	0	16.37	0	1.05747953	-6.64034676	220	6	1.1	0.9	1.0161	-0.0018	0.0000	0.0000;
	55	1	0	-0	0	1.23	0	1.00114818	-9.64950875	220	3	1.1	0.9	1.0235	0.0056	0.0000	0.0000;
	56	1	140	79.7	0	6.5	0	1.00987968	-13.263316	220	3	1.1	0.9	1.0389	0.0003	0.0000	0.0000;
	57	1	21.6	3	0	3.54	0	1.07796104	-8.80156694	154	1	1.1	0.9	1.0331	0.0004	0.0000	0.0000;
	58	1	0	0	0	2.31	0	1.04114634	-1.41422373	380	5	1.1	0.9	0.9997	-0.0010	0.0000	0.0000;
	59	1	119.2	20.7	0	3.31	0	1.08383713	-11.8865075	220	5	1.1	0.9	1.0283	-0.0051	0.0000	0.0000;
	60	1	0.24	-1.66	0	0.65	0	1.04761881	-5.622002	110	18	1.1	0.9	1.0073	-0.0081	0.0000	0.0000;
	61	1	-0	0	0	58.57	0	0.987903678	0.583924553	380	3	1.1	0.9	0.9996	-0.0003	0.0000	0.0000;
	62	1	-0	0	0	1.34	0	0.998367595	-9.23023435	110	18	1.1	0.9	1.0558	0.0112	0.0000	0.0000;
	63	1	187.9	110.2	0	21.25	0	1.04478915	-10.9008135	380	3	1.1	0.9	1.0270	-0.0333	0.0000	0.0000;
	64	1	14.92	5.5	0	1.31	0	1.06019038	-5.29845409	110	15	1.1	0.9	1.0277	0.0093	0.0000	0.0000;
	65	1	-18.52	6.1	0	0.79	0	0.912540273	-16.2904885	150	9	1.1	0.9	1.0623	0.0978	0.0000	0.0000;
	66	1	4.61	1.7	0	2.32	0	1.09555506	-6.56562924	110	19	1.1	0.9	1.0165	-0.0015	0.0000	0.0000;
	67	1	0	0	0.099501	82.133595	0	1.1	-5.76750943	380	18	1.1	0.9	1.0197	-0.0073	35.4666	0.0000;
	68	1	10.81	5.1	0	1.09	0	0.945047508	-15.3828489	110	18	1.1	0.9	1.0741	0.0184	0.0000	0.0000;
	69	1	62.87	20.5	0	1.15	0	1.05663858	-15.0296752	150	8	1.1	0.9	1.0377	0.0057	0.0000	0.0000;
	70	1	0	0	0	2.64	0	1.059346	-8.88990445	154	1	1.1	0.9	1.0236	-0.0031	0.0000	0.0000;
	71	1	126.3	42.4	0	55.24	0	1.07854934	-16.0875673	150	8	1.1	0.9	1.0381	0.0012	0.0000	0.0000;
	72	1	6.91	-4.6	0	5.75	0	1.0461079	-6.4491766	220	4	1.1	0.9	1.0070	0.0017	0.0000	0.0000;
	73	1	15.72	5.2	0	0.11	0	1.02583363	-10.4289471	110	12	1.1	0.9	1.0424	0.0081	0.0000	0.0000;
	74	1	0	0	0	0	0	1.04952895	-11.0830129	150	9	1.1	0.9	1.0239	0.0171	0.0000	0.0000;
	75	1	38.74	6.1	0	1.17	0	1.07526385	-10.4026279	220	4	1.1	0.9	1.0180	-0.0008	0.0000	0.0000;
	76	1	22.13	10.7	0	14.21	0	1.03052411	-6.14464614	220	8	1.1	0.9	1.0016	0.0030	0.0000	0.0000;
	77	1	-0	-0	0	0.73	0	1.08182802	-7.05597486	220	4	1.1	0.9	1.0063	-0.0001	0.0000	0.0000;
	78	1	0	-0	0	0.83	0	0.996081057	-7.03703234	110	18	1.1	0.9	1.0317	0.0093	0.0000	0.0000;
	79	1	138.8	136.7	0	8.76	0	1.01423656	-6.85909168	380	3	1.1	0.9	1.0192	0.0042	0.0000	0.0000;
	80	2	0	0	0	0	0	1.0900437	-4.46575232	220	23	1.1	0.9	1.0046	-0.0000	0.0000	0.0000;
	81	1	67.76	19.18	0	1.47	0	1.02917764	-3.1896914	150	1	1.1	0.9	1.0075	0.0012	0.0000	0.0000;
	82	1	22.02	5.1	0	0.69	0	1.0377838	-10.1977511	110	1	1.1	0.9	1.0525	0.0097	0.0000	0.0000;
	83	1	0	0	0	6.62	0	0.989788158	-9.45756	220	3	1.1	0.9	1.0264	0.0089	0.0000	0.0000;
	84	1	1	0.3	0	0.19	0	1.06724403	-6.34481405	110	19	1.1	0.9	1.0041	0.0003	0.0000	0.0000;
	85	1	20.9	3	0	5.74	0	1.06044077	-4.72800637	154	1	1.1	0.9	1.0072	-0.0004	0.0000	0.0000;
	86	1	0	0	0	0.12	0	1.06000268	-9.54464867	150	9	1.1	0.9	1.0001	0.0056	0.0000	0.0000;
	87	1	21.52	5.1	0	0.5	0	1.02824998	-2.06958334	110	18	1.1	0.9	1.0040	-0.0004	0.0000	0.0000;
	88	1	71.98	28.8	0	11	0	1.07582574	-7.09522209	220	6	1.1	0.9	1.0184	0.0006	0.0000	0.0000;
	89	1	0	0	0.199111	4.530599	0	1.0266207	-5.83820875	380	2	1.1	0.9	1.0161	0.0040	0.0000	0.0000;
	90	1	363.25	115.39	0	3.95	0	1.07638828	-10.0782918	220	5	1.1	0.9	1.0250	0.0049	0.0000	0.0000;
	91	1	-0	0	0	0.02	0	1.05363115	-13.9449139	150	8	1.1	0.9	1.0261	0.0055	0.0000	0.0000;
	92	1	192.9	73.3	0	20.75	0	1.06487984	-11.452239	380	3	1.1	0.9	1.0297	-0.0516	0.0000	0.0000;
	93	1	17.52	6.3	0	0.26	0	1.09232245	-7.0042523	110	19	1.1	0.9	1.0148	-0.0015	0.0000	0.0000;
	94	1	33.14	12	0	0.65	0	1.0892952	-5.9249419	110	19	1.1	0.9	1.0082	0.0025	0.0000	0.0000;
	95	1	40.45	25	0	9.82	0	0.995021072	-13.8686938	150	9	1.1	0.9	1.0464	0.0332	0.0000	0.0000;
	96	1	193.17	53.37	0	4.58	0	1.07510338	-4.59484799	220	5	1.1	0.9	1.0088	0.0017	0.0000	0.0000;
	97	1	0	0	0	9.38	0	1.03420774	-2.15419562	380	1	1.1	0.9	1.0015	0.0000	0.0000	0.0000;
	98	1	90.7	25.5	0	3.11	0	1.07591511	-17.2036976	220	3	1.1	0.9	1.0326	-0.0335	0.0000	0.0000;
	99	1	176.3	-58.9	0	24.77	0	1.08924	-5.04680706	380	6	1.1	0.9	1.0131	-0.0005	0.0000	0.0000;
	100	1	35.94	22.3	0	0	0	1.03650914	-11.7387493	150	9	1.1	0.9	1.0333	0.0224	0.0000	0.0000;
	101	1	-0	0	0	0.29	0	0.980451818	-13.9812702	150	9	1.1	0.9	1.0421	0.0382	0.0000	0.0000;
	102	1	0	-0	0	3.77	0	1.034098	-10.3983374	220	6	1.1	0.9	1.0244	0.0002	0.0000	0.0000;
	103	1	65.07	40.3	0	5.43	0	1.01305357	-15.1719012	150	9	1.1	0.9	1.0441	0.0167	0.0000	0.0000;
	104	1	51.36	-8.8	0	2.15	0	0.98346816	-16.3901502	220	6	1.1	0.9	1.0709	0.0039	0.0000	0.0000;
	105	1	-0	-0	0	82.55	0	1.05168479	-4.90330594	380	6	1.1	0.9	1.0115	-0.0000	0.0000	0.0000;
	106	1	0	-0	0	31.19	0	1.16044686	-3.35773035	380	23	1.3	0.7	1.0078	-0.0006	0.0000	0.0000;
	107	2	0	0	0	0	0	1.00783987	1.90739975	380	3	1.3	0.7	0.9934	-0.0060	0.0000	0.0000;
	108	1	3.8	1.3	0	0.4	0	1.02455667	-2.81856591	110	18	1.1	0.9	1.0040	0.0008	0.0000	0.0000;
	109	1	137	19.5	0	4.9	0	1.0661795	-6.14290041	154	1	1.1	0.9	1.0216	0.0029	0.0000	0.0000;
	110	1	0	0	0	0	0	1.00260497	-13.4688568	150	9	1.1	0.9	1.0440	0.0269	0.0000	0.0000;
	111	1	61.07	36	0	3.09	0	1.031886	-12.8453152	220	11	1.1	0.9	1.0317	-0.0031	0.0000	0.0000;
	112	1	0	0	0	3.24	0	1.06757604	-19.5291342	220	3	1.1	0.9	1.0351	-0.0648	0.0000	0.0000;
	113	1	-0	-0	0	6.532711	0	1.0652507	-4.16437584	380	5	1.1	0.9	1.0095	0.0011	0.0000	0.0000;
	114	1	55.7	7.9	0	4.21	0	1.03405643	-6.62162145	154	1	1.1	0.9	1.0209	0.0024	0.0000	0.0000;
	115	1	0	-0	0	4.21	0	1.0689598	-12.7648857	220	5	1.1	0.9	1.0257	0.0049	0.0000	0.0000;
	116	1	1.8	0.7	0	0.3	0	1.06595257	-8.2837109	110	19	1.1	0.9	1.0388	0.0080	0.0000	0.0000;
	117	1	40.04	16	0	0.52	0	1.01332849	-4.80699892	110	18	1.1	0.9	1.0142	-0.0006	0.0000	0.0000;
	118	1	-0	0	0	36.562834	0	1.07228783	-1.64993636	380	5	1.1	0.9	1.0012	-0.0004	0.0000	0.0000;
	119	1	0	0	0	0.09	0	1.09001184	-5.61147482	150	9	1.1	0.9	0.9919	-0.0005	0.0000	0.0000;
	120	1	140.6	20.1	0	13.81	0	1.05688572	-10.979176	154	1	1.1	0.9	1.0199	0.0003	0.0000	0.0000;
	121	1	45.15	14.1	0	0.19	0	1.08124176	-6.0583365	110	15	1.1	0.9	1.0128	0.0015	0.0000	0.0000;
	122	1	-0	0	0	5.75	0	0.995565875	-10.6455905	220	3	1.1	0.9	1.0298	0.0077	0.0000	0.0000;
	123	2	0	0	0	0	0	1.02835895	-14.7656837	220	11	1.1	0.9	1.0281	-0.0129	0.0000	0.0000;
	124	2	0	0	0	0	0	1.06990321	2.47074762	220	5	1.1	0.9	0.9963	-0.0000	0.0000	0.0000;
	125	1	3.42	2.68	0	1.46	0	1.04563031	-5.65700993	110	18	1.1	0.9	1.0089	-0.0069	0.0000	0.0000;
	126	1	0	-0	0	2.64	0	1.04793049	-6.76171881	154	1	1.1	0.9	1.0275	0.0028	0.0000	0.0000;
	127	1	-0	-0	0	4.3	0	1.05138448	-3.41816963	220	6	1.1	0.9	1.0035	0.0004	0.0000	0.0000;
	128	1	23.73	12.7	0	0.52	0	1.0512617	-13.0974044	220	5	1.1	0.9	1.0351	0.0070	0.0000	0.0000;
	129	1	121.9	7.4	0	1.34	0	1.02961965	-14.0233954	220	3	1.1	0.9	1.0376	-0.0153	0.0000	0.0000;
	130	1	-0	0	0.135375	47.750675	0	1.09049617	-10.5800573	380	10	1.1	0.9	1.0243	-0.0013	0.0000	0.0000;
	131	1	47.35	16.4	0	4.08	0	1.06098427	-6.91840879	110	22	1.1	0.9	1.0146	-0.0018	0.0000	0.0000;
	132	1	0	-0	0	21.39	0	1.09110723	-7.30084948	380	1	1.1	0.9	1.0125	-0.0027	0.0000	0.0000;
	133	1	38.14	12.5	0	6.28	0	1.06357609	-12.4790098	150	8	1.1	0.9	1.0277	0.0053	0.0000	0.0000;
	134	1	54.2	7.8	0	94.9	0	1.06118992	-3.02543404	400	1	1.1	0.9	1.0026	-0.0018	0.0000	0.0000;
	135	1	130.6	84.9	0	4.22	0	1.02021807	-9.62500261	220	7	1.1	0.9	1.0249	0.0044	0.0000	0.0000;
	136	1	7.91	2.6	0	0.74	0	1.01520543	-9.15622795	110	12	1.1	0.9	1.0409	0.0129	0.0000	0.0000;
	137	1	42.1	74.61	0	37.58	0	1.02418654	-3.152601	150	1	1.1	0.9	1.0169	0.0045	0.0000	0.0000;
	138	1	-75.38	7.8	0	29.9	0	1.09517687	-7.93815158	380	10	1.1	0.9	1.0142	-0.0050	0.0000	0.0000;
	139	1	-0	-0	0	36.92	0	1.04226239	-7.44329932	380	8	1.1	0.9	1.0183	-0.0080	0.0000	0.0000;
	140	1	0	0	0	4.14	0	1.05410847	-11.1126961	220	8	1.1	0.9	1.0276	0.0015	0.0000	0.0000;
	141	2	0	0	0	0	0	1.08855894	-0.179089268	220	13	1.1	0.9	1.0000	-0.0000	0.0000	0.0000;
	142	2	0	0	0	0	0	1.03357943	-5.80090882	220	6	1.1	0.9	1.0000	-0.0000	0.0000	0.0000;
	143	1	0	0	0	0	0	1.05445151	-15.5046207	150	8	1.1	0.9	1.0378	0.0055	0.0000	0.0000;
	144	1	0	0	0	98.53	0	1.03271227	-1.59862988	380	14	1.1	0.9	1.0022	-0.0119	0.0000	0.0000;
	145	1	38.34	5.6	0	7.64	0	1.09320067	-4.34390758	220	5	1.1	0.9	1.0024	0.0001	0.0000	0.0000;
	146	1	269.6	65.7	0	0	0	1.10998622	-7.19931711	120	20	1.3	0.7	1.0167	-0.0045	0.0000	0.0000;
	147	2	0	0	0	0	0	1.07407373	-3.16003912	220	7	1.1	0.9	0.9990	-0.0008	0.0000	0.0000;
	148	1	32.34	12	0	6.1	0	1.06782609	-4.50421189	220	5	1.1	0.9	1.0072	0.0012	0.0000	0.0000;
	149	1	100.1	45.1	0	1.11	0	1.04217575	-6.42550483	380	6	1.1	0.9	1.0146	0.0011	0.0000	0.0000;
	150	2	0	0	0	0	0	1.08108986	-3.32222923	220	5	1.1	0.9	1.0000	-0.0000	0.0000	0.0000;
	151	2	0	0	0	0	0	1.05864754	-3.35140696	154	1	1.1	0.9	1.0003	0.0000	0.0000	0.0000;
	152	1	7	1	0	4.69	0	1.07081653	-4.83999518	154	1	1.1	0.9	1.0045	-0.0345	0.0000	0.0000;
	153	1	-0	0	0	0.56	0	1.02046458	-7.19868203	150	7	1.1	0.9	1.0137	-0.0207	0.0000	0.0000;
	154	1	0	0	0	1.29	0	1.03374177	-9.28957947	110	12	1.1	0.9	1.0363	0.0058	0.0000	0.0000;
	155	1	-0	-0	0	1.7	0	1.03398256	-7.51693772	110	21	1.1	0.9	1.0166	0.0062	0.0000	0.0000;
	156	1	40.34	25	0	1.14	0	0.969108832	-14.167918	150	9	1.1	0.9	1.0464	0.0418	0.0000	0.0000;
	157	1	9.21	3.3	0	1.2	0	1.07147151	-6.71503669	110	19	1.1	0.9	1.0220	0.0073	0.0000	0.0000;
	158	1	166	60.3	0	0.57	0	1.00630594	-9.53380372	220	3	1.1	0.9	1.0199	0.0035	0.0000	0.0000;
	159	1	0	-0	0	0.1	0	1.03450709	-11.314663	150	9	1.1	0.9	1.0380	0.0241	0.0000	0.0000;
	160	1	79.4	11.3	0	4.92	0	1.06946661	-4.34359089	154	1	1.1	0.9	1.0058	-0.0014	0.0000	0.0000;
	161	1	-0	-0	0	0.16	0	1.08781309	-9.81839845	150	9	1.1	0.9	1.0208	0.0117	0.0000	0.0000;
	162	1	0	0	0	66.65	0	1.09747537	-0.504528823	380	6	1.1	0.9	1.0019	-0.0071	0.0000	0.0000;
	163	1	147.76	32.73	0	8.34	0	1.06757921	-8.79362824	220	5	1.1	0.9	1.0188	0.0045	0.0000	0.0000;
	164	1	0	-0	0	5.17	0	1.05539908	-20.1561173	150	8	1.1	0.9	1.0621	0.0114	0.0000	0.0000;
	165	1	26.8	-3.7	0	51.261678	0	1.08763621	-4.1823666	380	9	1.1	0.9	1.0124	0.0035	0.0000	0.0000;
	166	2	0	0	0	0	0	1.03222985	-5.74261829	220	3	1.1	0.9	1.0032	0.0000	0.0000	0.0000;
	167	1	257.5	131.1	0	1.08	0	1.02562737	-9.90349452	220	3	1.1	0.9	1.0158	0.0004	0.0000	0.0000;
	168	1	16.7	2.4	0	6.09	0	1.06300417	-4.92811544	154	1	1.1	0.9	1.0036	-0.0011	0.0000	0.0000;
	169	1	0	0	0	1.91	0	1.04686347	-11.2451943	150	9	1.1	0.9	1.0259	0.0181	0.0000	0.0000;
	170	1	-0	-0	0	2.35	0	1.01152765	2.34946634	220	1	1.1	0.9	0.9869	-0.0002	0.0000	0.0000;
	171	1	100.8	13.2	0	5.24	0	1.06199253	-7.5356742	220	5	1.1	0.9	1.0065	0.0028	0.0000	0.0000;
	172	1	111.7	10.96	0	4.22	0	1.06248675	-5.91885785	220	4	1.1	0.9	1.0056	0.0002	0.0000	0.0000;
	173	1	90.38	-5.05	0	8.49	0	1.03871431	-1.97081951	220	13	1.1	0.9	1.0080	0.0007	0.0000	0.0000;
	174	1	370.5	-17	0	9.91	0	1.09089051	-16.3475396	220	5	1.1	0.9	1.0450	0.0016	0.0000	0.0000;
	175	1	9.91	3.2	0	0.67	0	1.02305308	-10.8921486	110	12	1.1	0.9	1.0544	0.0074	0.0000	0.0000;
	176	1	-0.69	-5.46	0	5.07	0	1.05429094	-10.1933873	150	9	1.1	0.9	1.0246	0.0165	0.0000	0.0000;
	177	1	94.9	36.2	0	16.46	0	0.998212031	-9.79145005	220	10	1.1	0.9	1.0220	0.0016	0.0000	0.0000;
	178	1	81.09	48	0	0.03	0	1.02551729	-11.3954084	150	9	1.1	0.9	1.0236	0.0149	0.0000	0.0000;
	179	2	0	0	0	0	0	1.09230381	-5.39636475	380	4	1.1	0.9	1.0060	-0.0004	0.0000	0.0000;
	180	1	0	0	0	0.54	0	1.04056008	-7.45711889	110	21	1.1	0.9	1.0108	0.0042	0.0000	0.0000;
	181	1	54.96	16.9	0	3.37	0	1.0585584	-7.47028452	110	22	1.1	0.9	1.0143	0.0006	0.0000	0.0000;
	182	1	19.32	26	0	0.69	0	1.0153079	-3.65868867	220	3	1.1	0.9	1.0067	-0.0055	0.0000	0.0000;
	183	1	0	0	0	1.83	0	1.04316642	-10.2500257	150	9	1.1	0.9	1.0112	0.0088	0.0000	0.0000;
	184	1	-0	-0	0	2.42	0	1.06708318	-10.685848	220	5	1.1	0.9	1.0216	0.0034	0.0000	0.0000;
	185	1	20.9	3	0	4.11	0	1.0723953	-4.24621895	154	1	1.1	0.9	1.0119	0.0009	0.0000	0.0000;
	186	1	19.92	6.6	0	0.56	0	1.01951798	-9.59522157	110	21	1.1	0.9	1.0476	0.0151	0.0000	0.0000;
	187	1	57.16	2	0	1.48	0	1.01534238	-10.7617568	110	22	1.1	0.9	1.0576	0.0100	0.0000	0.0000;
	188	1	36.84	13.9	0	3.3	0	1.05610329	-9.82392742	220	5	1.1	0.9	1.0218	0.0050	0.0000	0.0000;
	189	1	-15.04	-5.12	0	0.43	0	1.02364009	-7.02502539	110	18	1.1	0.9	1.0102	-0.0015	0.0000	0.0000;
	190	2	0	0	0	0	0	1.1	-4.00129305	110	19	1.1	0.9	1.0043	0.0000	3.7506	0.0000;
	191	1	0	-0	0	14.19	0	1.02625477	-6.62705434	220	6	1.1	0.9	1.0134	-0.0009	0.0000	0.0000;
	192	2	0	0	0	0	0	1.03095196	1.55962437	380	3	1.1	0.9	0.9929	-0.0000	0.0000	0.0000;
	193	1	119.9	3.7	0	3.33	0	1.00667778	-4.16864737	220	3	1.1	0.9	1.0070	-0.0135	0.0000	0.0000;
	194	2	0	0	0	0	0	1.08303651	-3.79380859	150	8	1.1	0.9	1.0000	0.0000	0.0000	0.0000;
	195	1	73.14	21.55	0	8.52	0	1.08726561	-3.07924219	220	5	1.1	0.9	1.0014	0.0001	0.0000	0.0000;
	196	1	0	-0	0	12.48	0	1.09931862	-20.5831732	220	5	1.1	0.9	1.0258	-0.0916	0.0000	0.0000;
	197	2	0	0	0	0	0	1.0003959	0.702448381	380	3	1.1	0.9	0.9989	-0.0013	0.0000	0.0000;
	198	1	39.74	11.8	0	1.44	0	1.04659444	-13.5138712	220	5	1.1	0.9	1.0381	0.0084	0.0000	0.0000;
	199	1	86.8	28.4	0	1.34	0	1.05492152	-13.6629832	150	8	1.1	0.9	1.0287	0.0067	0.0000	0.0000;
	200	1	22.42	2.1	0	0.19	0	1.03467706	-2.19518629	150	1	1.1	0.9	1.0051	0.0007	0.0000	0.0000;
	201	2	0	0	0	0	0	1.08073784	-8.43687914	220	4	1.1	0.9	1.0079	-0.0005	0.0000	0.0000;
	202	1	110.9	32.7	0	15.4	0	0.985903073	-2.32556696	220	14	1.1	0.9	1.0083	0.0015	0.0000	0.0000;
	203	1	18.2	2.6	0	12.38	0	1.06126882	-4.7707811	154	1	1.1	0.9	1.0035	-0.0013	0.0000	0.0000;
	204	1	-0	-0	0.181549	14.690889	0	1.081098	-5.76998379	220	18	1.1	0.9	1.0219	0.0010	0.0000	0.0000;
	205	1	46.15	18.2	0	1.29	0	1.05046187	-15.0420043	150	8	1.1	0.9	1.0343	0.0058	0.0000	0.0000;
	206	1	34.04	12.3	0	0.23	0	1.09393911	-7.07068818	110	19	1.1	0.9	1.0151	-0.0019	0.0000	0.0000;
	207	1	321.98	84.4	0	1.34	0	1.05178463	-12.37763	220	5	1.1	0.9	1.0335	0.0068	0.0000	0.0000;
	208	1	33.44	10	0	1.36	0	1.00229452	-14.1070656	110	3	1.1	0.9	1.0334	0.0143	0.0000	0.0000;
	209	2	0	0	0	0	0	1.0537103	-6.28655538	110	12	1.1	0.9	1.0031	0.0000	0.0000	0.0000;
	210	1	0	0	0	0	0	0.977080561	-16.0604919	150	9	1.1	0.9	1.0359	0.0043	0.0000	0.0000;
	211	1	75.28	19.2	0	1.9	0	1.05958981	-14.8921275	110	8	1.1	0.9	1.0345	0.0016	0.0000	0.0000;
	212	1	95.69	24.54	0	2.85	0	1.06175399	-2.12044114	220	13	1.1	0.9	1.0064	0.0009	0.0000	0.0000;
	213	1	37.34	10.9	0	0.63	0	1.01363686	-10.766321	110	1	1.1	0.9	1.0782	0.0201	0.0000	0.0000;
	214	2	0	0	0	0	0	1.05802246	-0.0178191536	380	13	1.1	0.9	1.0000	-0.0000	0.0000	0.0000;
	215	1	-0	0	0	4.93	0	1.02245041	-8.91295546	110	18	1.1	0.9	1.0243	-0.0052	0.0000	0.0000;
	216	1	155.6	54.7	0	2.21	0	1.08393416	-15.6153642	220	5	1.1	0.9	1.0371	0.0004	0.0000	0.0000;
	217	1	105.2	0.1	0	7.36	0	1.03885734	-7.05473017	220	5	1.1	0.9	1.0167	0.0032	0.0000	0.0000;
	218	1	69.83	15.12	0	2.23	0	1.06427028	-8.57508417	220	5	1.1	0.9	1.0185	0.0030	0.0000	0.0000;
	219	2	0	0	0	0	0	1.02945607	-4.9034657	380	7	1.1	0.9	1.0000	-0.0000	0.0000	0.0000;
	220	2	0	0	0	0	0	1.09177498	0.0749375931	380	6	1.1	0.9	1.0000	-0.0067	0.0000	0.0000;
	221	2	0	0	0	0	0	1.04083141	-1.38320853	380	5	1.1	0.9	0.9996	-0.0015	0.0000	0.0000;
	222	2	0	0	0	0	0	1.01824297	-0.993906392	150	1	1.1	0.9	1.0000	0.0004	0.0000	0.0000;
	223	1	27.03	8.8	0	1.84	0	1.03469885	-5.71542105	110	21	1.1	0.9	1.0068	0.0001	0.0000	0.0000;
	224	1	2.6	0.5	0	0.14	0	1.01837382	-4.26420265	110	18	1.1	0.9	1.0204	0.0035	0.0000	0.0000;
	225	1	0	0	0	1.15	0	1.06609924	-13.1427381	220	5	1.1	0.9	1.0282	0.0055	0.0000	0.0000;
	226	1	14.62	4.8	0	1.02	0	1.03149261	-7.15225643	110	12	1.1	0.9	1.0159	0.0006	0.0000	0.0000;
	227	1	-0	0	0	2.55	0	1.05166882	-4.31833962	220	7	1.1	0.9	1.0041	-0.0000	0.0000	0.0000;
	228	1	-23.43	57.4	0	0	0	1.07724876	-8.48092885	150	2	1.1	0.9	1.0017	0.0017	0.0000	0.0000;
	229	1	426.6	93.7	0	80.94	0	1.06464577	-1.90582718	380	6	1.1	0.9	1.0025	-0.0003	0.0000	0.0000;
	230	1	152.07	22.52	0	7.87	0	1.05112607	-5.02300585	220	4	1.1	0.9	1.0086	0.0015	0.0000	0.0000;
	231	1	-0.13	-1	0	0	0	1.02748395	-9.43567296	110	8	1.1	0.9	1.0123	0.0071	0.0000	0.0000;
	232	1	0	0	0	0.7	0	1.0594585	-7.82202903	150	9	1.1	0.9	1.0189	0.0125	0.0000	0.0000;
	233	1	2.5	3.8	0	0.15	0	0.9688823	-13.3477632	110	18	1.1	0.9	1.0476	0.0097	0.0000	0.0000;
	234	1	16.7	2.4	0	0.87	0	1.05709213	-3.60263726	154	1	1.1	0.9	1.0025	0.0002	0.0000	0.0000;
	235	1	34.04	4.4	0	1.25	0	1.00726048	-12.1160493	110	22	1.1	0.9	1.0868	0.0147	0.0000	0.0000;
	236	1	45.85	7	0	1.05	0	1.07106292	-12.376317	220	4	1.1	0.9	1.0272	-0.0020	0.0000	0.0000;
	237	1	0	-0	0	30.97	0	1.04111383	-0.184717168	380	3	1.1	0.9	0.9960	-0.0013	0.0000	0.0000;
	238	1	0	-0	0	19.36	0	1.04303064	-7.06448838	220	6	1.1	0.9	1.0095	-0.0111	0.0000	0.0000;
	239	2	0	0	0	0	0	1.06888198	-6.23378387	110	19	1.1	0.9	1.0030	0.0000	0.0000	0.0000;
	240	1	0	0	0	0	0	1.02991404	-12.0276836	150	9	1.1	0.9	1.0294	0.0174	0.0000	0.0000;
	241	1	-0	0	0	3.95	0	1.0020693	1.57928743	220	3	1.1	0.9	0.9879	0.0003	0.0000	0.0000;
	242	1	167.9	18.2	0	5.97	0	1.0739114	-17.3572966	220	3	1.1	0.9	1.0289	-0.0423	0.0000	0.0000;
	243	1	0	-0.01	0	13.49	0	1.0615325	-2.04039513	150	8	1.1	0.9	1.0034	0.0009	0.0000	0.0000;
	244	1	-0	-0	0	0.68	0	1.06749262	-9.62202689	150	8	1.1	0.9	1.0115	0.0039	0.0000	0.0000;
	245	1	16.62	5.5	0	1.34	0	1.02198858	-9.03340673	110	21	1.1	0.9	1.0212	0.0070	0.0000	0.0000;
	246	2	0	0	0	0	0	1.07123066	-1.99804693	220	1	1.1	0.9	0.9998	-0.0000	0.0000	0.0000;
	247	1	0	0	0	0.72	0	1.00811834	-7.70063629	110	18	1.1	0.9	1.0320	0.0041	0.0000	0.0000;
	248	2	0	0	0	0	0	1.06039213	-0.552743397	380	13	1.1	0.9	1.0000	0.0003	0.0000	0.0000;
	249	1	-0	-0	0	26.3	0	1.03460528	-6.38250634	220	4	1.1	0.9	1.0125	-0.0016	0.0000	0.0000;
	250	1	0	0	0	13.85	0	1.03815137	-4.60145117	380	3	1.1	0.9	1.0086	-0.0002	0.0000	0.0000;
	251	1	118.4	16.9	0	8.02	0	1.0539866	-6.83786728	154	1	1.1	0.9	1.0178	0.0012	0.0000	0.0000;
	252	1	-0	0	0	2.66	0	1.02853287	-1.0893916	220	3	1.1	0.9	1.0037	-0.0050	0.0000	0.0000;
	253	1	0	-0	0	4.06	0	1.02922226	-16.8652272	220	1	1.1	0.9	1.0422	-0.0179	0.0000	0.0000;
	254	1	-0	-0	0.135493	12.74062	0	1.07873891	-7.09349049	380	21	1.1	0.9	1.0240	0.0043	0.0000	0.0000;
	255	2	0	0	0	0	0	1.07375626	-1.19143299	380	16	1.1	0.9	1.0028	-0.0000	0.0000	0.0000;
	256	1	0	-0	0	7.09	0	1.09065748	-2.5354186	220	6	1.1	0.9	1.0001	0.0000	0.0000	0.0000;
	257	1	113.9	24.5	0	6.72	0	1.06611836	-8.7676185	220	4	1.1	0.9	1.0167	-0.0013	0.0000	0.0000;
	258	1	88	12.6	0	22.25	0	1.08934678	-10.8914774	154	1	1.1	0.9	1.0217	0.0005	0.0000	0.0000;
	259	1	42.67	12.11	0	14.84	0	1.03163218	-12.221252	150	9	1.1	0.9	1.0197	-0.0001	0.0000	0.0000;
	260	1	216.8	40.5	0	5.91	0	1.05835216	-20.5173125	220	3	1.1	0.9	1.0442	-0.0524	0.0000	0.0000;
	261	1	-0	0	0	1.29	0	1.08665031	-10.7453503	380	10	1.1	0.9	1.0270	-0.0012	0.0000	0.0000;
	262	2	0	0	0	0	0	1.05571737	-0.749738936	220	13	1.1	0.9	1.0002	0.0000	0.0000	0.0000;
	263	2	0	0	0	0	0	1.07651832	-7.21264347	154	1	1.1	0.9	1.0106	-0.0088	0.0000	0.0000;
	264	1	38.74	9	0	0.57	0	1.06388499	-5.21412066	220	4	1.1	0.9	1.0023	0.0001	0.0000	0.0000;
	265	1	350.4	29.3	0	19.31	0	1.06552166	-8.17106171	220	11	1.1	0.9	1.0232	-0.0053	0.0000	0.0000;
	266	1	0	-0	0	140.96	0	1.08840719	-4.00366287	380	4	1.1	0.9	1.0022	-0.0033	0.0000	0.0000;
	267	1	103.8	2.7	0	3.33	0	1.0736729	-9.22196676	220	4	1.1	0.9	1.0200	0.0005	0.0000	0.0000;
	268	1	-0.13	-1	0	0	0	1.0466185	-5.74734794	220	8	1.1	0.9	1.0014	0.0021	0.0000	0.0000;
	269	1	0	-0	0	0.66	0	1.0535022	-6.15111726	110	22	1.1	0.9	1.0098	0.0021	0.0000	0.0000;
	270	1	-0	0	0	6.34	0	1.03188371	0.937045612	380	1	1.1	0.9	0.9952	-0.0001	0.0000	0.0000;
	271	1	96.7	26.8	0	0	0	1.07213304	-10.0351316	150	2	1.1	0.9	1.0143	0.0046	0.0000	0.0000;
	272	1	0	0	0	19.54	0	1.07255686	-12.2377716	150	9	1.1	0.9	1.0040	-0.0955	0.0000	0.0000;
	273	1	-0	-0	0	14.87	0	1.07288171	-6.40014288	220	23	1.1	0.9	1.0180	0.0043	0.0000	0.0000;
	274	1	19.02	6	0	0.25	0	1.02661317	-6.88575228	110	21	1.1	0.9	1.0128	0.0082	0.0000	0.0000;
	275	1	102.1	25.3	0	1.11	0	1.05796285	-12.9529481	150	8	1.1	0.9	1.0325	0.0067	0.0000	0.0000;
	276	1	-0	0	0	2.44	0	1.00076546	0.0328932777	220	3	1.1	0.9	0.9978	-0.0001	0.0000	0.0000;
	277	1	0	0	0	0	0	1.02674691	-10.0542414	150	9	1.1	0.9	1.0104	0.0179	0.0000	0.0000;
	278	2	0	0	0	0	0	1.01287865	-6.62931998	110	18	1.1	0.9	1.0000	-0.0014	0.0000	0.0000;
	279	1	8.31	3	0	0.99	0	1.03092304	-8.93035776	110	19	1.1	0.9	1.0523	0.0184	0.0000	0.0000;
	280	1	119.6	29.6	0	5.34	0	1.0782079	-5.68282888	220	5	1.1	0.9	1.0066	0.0003	0.0000	0.0000;
	281	1	-0	-0	0	18.07	0	1.07708516	-4.95458395	380	8	1.1	0.9	1.0130	0.0026	0.0000	0.0000;
	282	2	0	0	0	0	0	1.08536737	-0.491334306	380	18	1.1	0.9	0.9996	-0.0000	0.0000	0.0000;
	283	1	27.33	11.9	0	1.17	0	1.06118685	-11.1903801	220	5	1.1	0.9	1.0262	0.0048	0.0000	0.0000;
	284	1	191.2	-3.4	0	19.21	0	1.06507665	-13.7868393	220	4	1.1	0.9	1.0329	-0.0002	0.0000	0.0000;
	285	1	0	0	0.029916	18.291787	0	1.02878087	-0.0300465627	380	1	1.1	0.9	0.9998	-0.0003	0.0000	0.0000;
	286	1	101.6	14.5	0	1.94	0	1.07037174	-5.4216616	154	1	1.1	0.9	1.0094	0.0011	0.0000	0.0000;
	287	1	177.1	66.9	0	71.03	0	1.07381133	-2.05169676	380	16	1.1	0.9	1.0057	-0.0002	0.0000	0.0000;
	288	1	0	0	0	0.3	0	1.08869942	-5.6088371	150	9	1.1	0.9	0.9917	0.0001	0.0000	0.0000;
	289	2	0	0	0	0	0	1.02613247	-4.57055735	220	6	1.1	0.9	0.9985	-0.0110	0.0000	0.0000;
	290	1	53.46	18.7	0	1.64	0	1.04821108	-1.10836155	220	20	1.1	0.9	1.0023	0.0004	0.0000	0.0000;
	291	1	0	-0	0	12.73	0	0.981659727	-0.590957937	220	14	1.1	0.9	0.9990	0.0017	0.0000	0.0000;
	292	1	13.82	1.4	0	0.7	0	1.09285258	-7.90588764	220	5	1.1	0.9	1.0145	0.0016	0.0000	0.0000;
	293	1	85.1	67	0	0.18	0	1.09118371	-6.05599237	150	9	1.1	0.9	0.9979	-0.0026	0.0000	0.0000;
	294	2	0	0	0	0	0	1.0708656	-2.36634699	400	1	1.1	0.9	1.0000	-0.0000	0.0000	0.0000;
	295	1	0	0	0	0.08	0	1.05015879	-3.4431857	220	6	1.1	0.9	1.0035	0.0011	0.0000	0.0000;
	296	1	189.3	76.7	0	3.24	0	1.00774816	-5.7402616	220	3	1.1	0.9	1.0091	0.0037	0.0000	0.0000;
	297	1	23.73	9.4	0	1.45	0	1.06222713	-15.3477003	150	8	1.1	0.9	1.0357	0.0056	0.0000	0.0000;
	298	1	10.01	-21	0	8.59	0	1.05266279	-10.5849982	220	11	1.1	0.9	1.0440	-0.0042	0.0000	0.0000;
	299	2	0	0	0	0	0	1.1	-3.61770045	380	4	1.1	0.9	1.0000	-0.0000	23.2966	0.0000;
	300	1	0	0	0	1.05	0	1.08493279	-6.85832693	150	9	1.1	0.9	1.0059	0.0038	0.0000	0.0000;
	301	1	-14.85	-4.95	0	0.37	0	1.02812046	-2.06282929	110	18	1.1	0.9	0.9951	-0.0023	0.0000	0.0000;
	302	1	20.9	3	0	2.65	0	1.07799498	-4.86568298	154	1	1.1	0.9	1.0123	0.0008	0.0000	0.0000;
	303	1	431.7	121.6	0	1.14	0	1.01663343	-7.57999639	220	21	1.1	0.9	1.0213	0.0087	0.0000	0.0000;
	304	1	2.2	0.5	0	0.21	0	1.02577761	-17.7149626	150	10	1.1	0.9	1.0459	0.0007	0.0000	0.0000;
	305	1	103	12	0	0.63	0	1.08236113	-18.9714187	220	5	1.1	0.9	1.0463	-0.0050	0.0000	0.0000;
	306	1	-0	0	0	4.76	0	1.04702759	-14.2659242	220	5	1.1	0.9	1.0269	-0.0028	0.0000	0.0000;
	307	1	0	0	0	25.85	0	1.09606765	-5.50796774	380	1	1.1	0.9	1.0172	-0.0019	0.0000	0.0000;
	308	1	0	0	0	0	0	0.850445714	-21.7186522	150	9	1.3	0.7	1.1499	0.1426	0.0000	0.0000;
	309	2	0	0	0	0	0	0.996449853	-9.38945818	220	3	1.1	0.9	1.0230	0.0072	0.0000	0.0000;
	310	2	0	0	0	0	0	1.12836784	-1.06102523	380	9	1.3	0.7	1.0000	0.0000	0.0000	0.0000;
	311	1	42.05	17.2	0	1.31	0	1.04654583	-14.9307053	150	8	1.1	0.9	1.0337	0.0117	0.0000	0.0000;
	312	1	-0.16	-2.91	0	0.43	0	1.09800869	-13.2732694	110	8	1.1	0.9	1.0113	-0.0466	0.0000	0.0000;
	313	2	0	0	0	0	0	1.07891658	-3.72053286	154	1	1.1	0.9	1.0000	-0.0000	0.0000	0.0000;
	314	1	163.1	46.3	0	10.6	0	1.02939793	-14.6710998	220	5	1.1	0.9	1.0411	0.0136	0.0000	0.0000;
	315	1	-0	-0	0	2.13	0	1.0409751	-5.89392845	220	10	1.1	0.9	1.0030	-0.0026	0.0000	0.0000;
	316	1	0	-0	0	2.81	0	1.07557235	-17.7368545	220	3	1.1	0.9	1.0305	-0.0431	0.0000	0.0000;
	317	1	-0	-0	0.045946	-1.82203	0	1.04135748	-2.04544689	380	2	1.1	0.9	1.0002	-0.0001	0.0000	0.0000;
	318	1	-0	-0	0	1.05	0	1.01155215	-12.4885069	150	9	1.1	0.9	1.0276	0.0156	0.0000	0.0000;
	319	1	153.3	21.8	0	18.25	0	1.06258368	-9.87949339	154	1	1.1	0.9	1.0171	0.0001	0.0000	0.0000;
	320	2	0	0	0	0	0	1.04629184	-1.68004201	400	1	1.1	0.9	1.0000	-0.0000	0.0000	0.0000;
	321	1	67.17	-23.9	0	0.93	0	1.00185972	-0.29936335	220	3	1.1	0.9	0.9996	-0.0007	0.0000	0.0000;
	322	1	303.8	85.4	0	3.63	0	0.988752862	-11.2791485	220	10	1.1	0.9	1.0292	0.0036	0.0000	0.0000;
	323	1	-0	-0	0	0	0	1.04927744	-2.27866751	400	1	1.1	0.9	1.0041	-0.0032	0.0000	0.0000;
	324	2	0	0	0	0	0	1.02683779	1.86766971	380	3	1.1	0.9	0.9915	-0.0017	0.0000	0.0000;
	325	2	0	0	0	0	0	1.0767904	-3.77446763	154	1	1.1	0.9	1.0000	0.0018	0.0000	0.0000;
	326	1	0	0	0	0	0	1.04660007	-5.70845635	220	8	1.1	0.9	1.0014	0.0021	0.0000	0.0000;
	327	1	0	0	0	12.29	0	1.03055343	-12.4531921	380	3	1.1	0.9	1.0357	-0.0155	0.0000	0.0000;
	328	2	0	0	0	0	0	1.02824531	-0.146931725	220	13	1.1	0.9	1.0000	-0.0000	0.0000	0.0000;
	329	1	24.23	7.1	0	1.64	0	1.03066498	-8.24589808	110	21	1.1	0.9	1.0237	0.0067	0.0000	0.0000;
	330	1	108.6	2.6	0	31.8	0	1.03912308	-4.9690115	380	3	1.1	0.9	1.0088	-0.0009	0.0000	0.0000;
	331	1	4	2.4	0	0.03	0	0.969482144	-14.345082	150	9	1.1	0.9	1.0379	0.0557	0.0000	0.0000;