function mpc = case3120sp
%CASE3120SP

%% MATPOWER Case Format : Version 2
mpc.version = '2';

%%-----  Power Flow Data  -----%%
%% system MVA base
mpc.baseMVA = 100;

%% bus data
%	bus_i	type	Pd	Qd	Gs	Bs	area	Vm	Va	baseKV	zone	Vmax	Vmin	lam_P	lam_Q	mu_Vmax	mu_Vmin
mpc.bus = [
	1	1	0	0	0	0	1	1.10632622	-1.41783468	220	1	1.11	0.95	138.2126	0.1314	0.0000	0.0000;
	2	1	0	0	0	0	1	1.10692935	0.256715415	220	1	1.11	0.95	137.7180	0.1075	0.0000	0.0000;
	3	1	0	0	0	0	1	1.0783177	-23.8877308	220	1	1.11	0.95	155.4304	-1.8086	0.0000	0.0000;
	4	1	0	0	0	0	1	1.07828547	-23.8951851	220	1	1.11	0.95	155.4372	-1.8075	0.0000	0.0000;
	5	1	0	0	0	0	1	1.11	-25.9019291	220	1	1.11	0.95	155.3798	-3.0937	4263.6838	0.0000;
	6	1	0	0	0	0	1	1.08288805	-5.43240248	220	1	1.11	0.95	141.3396	0.7258	0.0000	0.0000;
	7	1	0	0	0	0	1	1.08289215	-5.43145668	220	1	1.11	0.95	141.3387	0.7251	0.0000	0.0000;
	8	1	0	0	0	0	1	1.09270608	-14.5733979	220	1	1.11	0.95	146.7240	-0.4683	0.0000	0.0000;
	9	1	0	0	0	0	1	1.09290248	-14.5618454	220	1	1.11	0.95	146.7159	-0.4661	0.0000	0.0000;
	10	1	0	0	0	0	1	1.11	-17.9202744	220	1	1.11	0.95	146.3694	-2.0084	9009.6719	0.0000;
	11	1	0	0	0	0	1	1.03365941	-11.1540175	400	1	1.05	0.95	145.5678	0.3142	0.0000	0.0000;
	12	1	0	0	0	0	1	1.03371664	-11.1472162	400	1	1.05	0.95	145.5607	0.3135	0.0000	0.0000;
	13	1	0	0	0	0	1	1.01198276	-14.8649619	400	1	1.05	0.95	146.3261	0.8059	0.0000	0.0000;
	14	1	0	0	0	0	1	1.04654491	-14.8551826	220	1	1.11	0.95	147.8767	0.6705	0.0000	0.0000;
	15	1	0	0	0	0	1	1.04638672	-14.8552142	220	1	1.11	0.95	147.8791	0.6737	0.0000	0.0000;
	16	1	0	0	0	0	1	1.01752235	-18.6939685	220	1	1.11	0.95	147.7810	-0.1449	0.0000	0.0000;
	17	1	0	0	0	0	1	1.0232557	-18.7784301	220	1	1.11	0.95	148.2204	0.2995	0.0000	0.0000;
	18	1	0	0	0	0	1	1.03555128	-9.76222775	400	1	1.05	0.95	144.6165	0.4771	0.0000	0.0000;
	19	1	0	0	0	0	1	1.03559597	-9.75408824	400	1	1.05	0.95	144.6080	0.4760	0.0000	0.0000;
	20	1	0	0	0	0	1	1.02457985	-17.7733785	400	1	1.05	0.95	146.6254	0.7015	0.0000	0.0000;
	21	1	0	0	0	0	1	1.02714616	-15.1834458	400	1	1.05	0.95	148.0572	0.2750	0.0000	0.0000;
	22	2	10	20	0	0	1	1.06595283	-18.738788	220	1	1.11	0.95	150.7766	-0.0000	0.0000	0.0000;
	23	2	10	20	0	0	1	1.06599322	-18.7363291	220	1	1.11	0.95	150.7738	-0.0000	0.0000	0.0000;
	24	1	0	0	0	0	1	1.08865552	-4.54642973	220	1	1.11	0.95	140.4148	0.5741	0.0000	0.0000;
	25	1	0	0	0	0	1	1.08874221	-4.55213901	220	1	1.11	0.95	140.4112	0.5721	0.0000	0.0000;
	26	1	0	0	0	0	1	1.05362605	-15.1073888	220	1	1.11	0.95	147.1010	0.2247	0.0000	0.0000;
	27	1	0	0	0	0	1	1.05360921	-15.1069824	220	1	1.11	0.95	147.1009	0.2251	0.0000	0.0000;
	28	1	0	0	0	0	1	1.04731375	-14.6781968	220	1	1.11	0.95	147.7413	0.6535	0.0000	0.0000;
	29	1	0	0	0	0	1	1.04726471	-14.6871777	220	1	1.11	0.95	147.7452	0.6534	0.0000	0.0000;
	30	1	0	0	0	0	1	1.09114414	-2.8248187	220	1	1.11	0.95	139.7591	0.4993	0.0000	0.0000;
	31	1	0	0	0	0	1	1.09105985	-2.8438777	220	1	1.11	0.95	139.7686	0.5010	0.0000	0.0000;
	32	1	0	0	0	0	1	1.03942725	-11.7631211	400	1	1.05	0.95	145.5605	0.5165	0.0000	0.0000;
	33	1	0	0	0	0	1	1.03940784	-11.766969	400	1	1.05	0.95	145.5627	0.5166	0.0000	0.0000;
	34	1	0	0	0	0	1	1.03477007	-14.1576617	400	1	1.05	0.95	145.1405	0.3273	0.0000	0.0000;
	35	2	32.16	52.07	0	0	1	1.11	-1.26888889	220	1	1.11	0.95	138.1322	0.0000	882.1802	0.0000;
	36	2	46.36	92.07	0	0	1	1.11	0.439119893	220	1	1.11	0.95	137.5986	-0.0000	1852.5115	0.0000;
	37	3	60	120	0	0	1	1.04996152	0	400	1	1.05	0.95	138.3782	-0.0000	0.0000	0.0000;
	38	2	60	120	0	0	1	1.05	0.00151176909	400	1	1.05	0.95	138.3761	-0.0000	5637.6572	0.0000;
	39	1	0	0	0	0	1	1.04374495	-15.3365095	220	1	1.11	0.95	148.2510	0.7775	0.0000	0.0000;
	40	1	0	0	0	0	1	1.04366582	-15.3442482	220	1	1.11	0.95	148.2572	0.7783	0.0000	0.0000;
	41	1	0	0	0	0	1	1.04779533	-1.73962614	400	1	1.05	0.95	139.0648	0.1923	0.0000	0.0000;
	42	1	0	0	0	0	1	1.0477791	-1.74202348	400	1	1.05	0.95	139.0698	0.1929	0.0000	0.0000;
	43	1	0	0	0	0	1	1.04219267	-15.1520097	220	1	1.11	0.95	148.1488	0.7300	0.0000	0.0000;
	44	1	0	0	0	0	1	1.02724509	-15.1839266	400	1	1.05	0.95	148.0572	0.2726	0.0000	0.0000;
	45	1	0	0	0	0	1	1.07465865	-6.64944104	220	1	1.11	0.95	142.1999	0.8790	0.0000	0.0000;
	46	1	0	0	0	0	1	1.07473022	-6.65314987	220	1	1.11	0.95	142.1982	0.8773	0.0000	0.0000;
	47	1	0	0	0	0	1	1.08007282	-9.15513765	220	2	1.11	0.95	144.0218	0.3155	0.0000	0.0000;
	48	1	0	0	0	0	1	1.08661269	-6.8785284	220	2	1.11	0.95	142.6245	0.1736	0.0000	0.0000;
	49	1	0	0	0	0	1	1.09723143	-5.66063454	220	2	1.11	0.95	141.4773	0.0478	0.0000	0.0000;
	50	1	0	0	0	0	1	1.09721534	-5.66294932	220	2	1.11	0.95	141.4800	0.0481	0.0000	0.0000;
	51	1	0	0	0	0	1	1.05847506	-9.53112213	220	2	1.11	0.95	144.0831	0.6417	0.0000	0.0000;
	52	1	3.97	1	0	0	1	1.09251103	-6.23781789	220	2	1.11	0.95	142.3951	0.0977	0.0000	0.0000;
	53	1	0	0	0	0	1	1.09258014	-6.2304004	220	2	1.11	0.95	142.3924	0.0956	0.0000	0.0000;
	54	1	0	0	0	0	1	1.02933188	-5.64770559	400	2	1.05	0.95	142.0537	-0.0313	0.0000	0.0000;
	55	2	13	30	0	0	1	1.09044111	-9.05848284	220	2	1.11	0.95	143.5137	-0.0000	0.0000	0.0000;
	56	2	39.35	90.07	0	0	1	1.09039721	-9.07259296	220	2	1.11	0.95	143.5200	0.0000	0.0000	0.0000;
	57	2	26	60	0	0	1	1.09045445	-9.04510251	220	2	1.11	0.95	143.5049	-0.0000	0.0000	0.0000;
	58	2	26	50	0	0	1	1.04599343	-7.76539929	400	2	1.05	0.95	143.5200	-0.0000	0.0000	0.0000;
	59	2	26	50	0	0	1	1.04598895	-7.76534392	400	2	1.05	0.95	143.5199	0.0000	0.0000	0.0000;
	60	1	0	0	0	0	1	1.08702723	-6.8416502	220	2	1.11	0.95	143.0504	0.2794	0.0000	0.0000;
	61	1	0	0	0	0	1	1.04178029	-4.67471408	400	2	1.05	0.95	141.0204	-0.5029	0.0000	0.0000;
	62	1	0	0	0	0	1	1.04177622	-4.67645338	400	2	1.05	0.95	141.0219	-0.5024	0.0000	0.0000;
	63	1	0	0	0	0	1	1.04225895	-8.88425368	400	2	1.05	0.95	144.0973	0.0874	0.0000	0.0000;
	64	1	0	0	0	0	1	1.06989183	-7.77139033	220	2	1.11	0.95	142.7698	0.6239	0.0000	0.0000;
	65	1	0	0	0	0	1	1.06987596	-7.76271042	220	2	1.11	0.95	142.7664	0.6245	0.0000	0.0000;
	66	1	0	0	0	0	1	1.03950215	-6.78061653	400	2	1.05	0.95	142.7130	-0.0526	0.0000	0.0000;
	67	1	0	0	0	0	1	1.03949449	-6.77552074	400	2	1.05	0.95	142.7077	-0.0522	0.0000	0.0000;
	68	2	13	30	0	0	1	1.10160258	-4.42748428	220	2	1.11	0.95	140.8400	-0.0028	0.0000	0.0000;
	69	2	26	60	0	0	1	1.10152528	-4.42168811	220	2	1.11	0.95	140.8333	-0.0000	0.0000	0.0000;
	70	2	0	2.25	0	0	1	1.03767185	-4.97742965	400	2	1.05	0.95	141.4072	-0.2666	0.0000	0.0000;
	71	2	26	60	0	0	1	1.03770686	-4.97804379	400	2	1.05	0.95	141.4085	-0.2676	0.0000	0.0000;
	72	1	0	0	0	0	1	1.08094614	-9.39707517	220	2	1.11	0.95	144.0086	0.3328	0.0000	0.0000;
	73	1	0	0	0	0	1	1.08095939	-9.39582678	220	2	1.11	0.95	144.0076	0.3322	0.0000	0.0000;
	74	1	0	0	0	0	1	1.08820441	-6.70929277	220	2	1.11	0.95	142.8730	0.3092	0.0000	0.0000;
	75	1	0	0	0	0	1	1.08821598	-6.71018007	220	2	1.11	0.95	142.8733	0.3083	0.0000	0.0000;
	76	1	0	0	0	0	1	1.08624269	-9.26007437	220	2	1.11	0.95	144.2875	0.1831	0.0000	0.0000;
	77	1	0	0	0	0	1	1.08624192	-9.26531326	220	2	1.11	0.95	144.2877	0.1831	0.0000	0.0000;
	78	1	0	0	0	0	1	1.04647432	-4.92481821	400	2	1.05	0.95	141.1002	-0.6478	0.0000	0.0000;
	79	1	0	0	0	0	1	1.04645883	-4.92590926	400	2	1.05	0.95	141.1013	-0.6466	0.0000	0.0000;
	80	1	0	0	0	0	1	1.09273616	-6.99356954	220	2	1.11	0.95	141.7182	0.1014	0.0000	0.0000;
	81	1	0	0	0	0	1	1.09298408	-6.94879272	220	2	1.11	0.95	141.8603	0.0952	0.0000	0.0000;
	82	1	0	0	0	0	1	1.07321977	-6.23592455	220	2	1.11	0.95	141.6626	0.7059	0.0000	0.0000;
	83	1	0	0	0	0	1	1.0879018	-2.78756827	220	3	1.11	0.95	140.3697	0.3616	0.0000	0.0000;
	84	1	6.41	2.01	0	0	1	1.08564146	-5.121846	220	3	1.11	0.95	141.7018	0.1980	0.0000	0.0000;
	85	1	13.89	5.02	0	0	1	1.08544489	-5.13891246	220	3	1.11	0.95	141.7173	0.2029	0.0000	0.0000;
	86	1	0	0	0	0	1	1.08489907	-1.84988237	220	3	1.11	0.95	139.1202	0.1642	0.0000	0.0000;
	87	1	0	0	0	0	1	1.08500139	-1.83992289	220	3	1.11	0.95	139.1107	0.1633	0.0000	0.0000;
	88	1	0	0	0	0	1	1.10502896	0.100970825	220	3	1.11	0.95	135.4344	-0.0620	0.0000	0.0000;
	89	1	0	0	0	0	1	1.10505697	0.0967421103	220	3	1.11	0.95	135.4372	-0.0621	0.0000	0.0000;
	90	1	0	0	0	0	1	1.05864984	-3.71764043	220	3	1.11	0.95	142.5724	0.4158	0.0000	0.0000;
	91	1	0	0	0	0	1	1.05840888	-3.71794892	220	3	1.11	0.95	142.5893	0.4158	0.0000	0.0000;
	92	2	28	70	0	0	1	1.09247254	-0.950523501	220	3	1.11	0.95	138.4421	0.0000	0.0000	0.0000;
	93	2	28	68	0	0	1	1.09234214	-0.954516925	220	3	1.11	0.95	138.6841	0.0000	0.0000	0.0000;
	94	1	2.78	1.91	0	0	1	1.07840699	-1.16975277	220	3	1.11	0.95	138.9644	0.4768	0.0000	0.0000;
	95	1	0	0	0	0	1	1.0784109	-1.17322933	220	3	1.11	0.95	138.9678	0.4761	0.0000	0.0000;
	96	2	32	142	0	0	1	1.05	1.24877553	400	3	1.05	0.95	135.1755	-0.0000	3104.8250	0.0000;
	97	1	0	0	0	0	1	1.04997429	1.22375446	400	3	1.05	0.95	135.2053	-0.0016	0.1458	0.0000;
	98	1	0	0	0	0	1	1.04799479	-2.02751765	220	3	1.11	0.95	136.0006	1.1097	0.0000	0.0000;
	99	1	0	0	0	0	1	1.09920706	-0.295213	220	3	1.11	0.95	136.5602	0.0714	0.0000	0.0000;
	100	1	0	0	0	0	1	1.09916205	-0.301884909	220	3	1.11	0.95	136.5749	0.0715	0.0000	0.0000;
	101	1	38.8	-2.7	0	0	1	1.09137793	-2.58627993	220	3	1.11	0.95	139.7547	0.2339	0.0000	0.0000;
	102	1	0	0	0	0	1	1.09134445	-2.58812588	220	3	1.11	0.95	139.7575	0.2347	0.0000	0.0000;
	103	1	0	0	0	0	1	1.09263575	-1.12591247	220	3	1.11	0.95	137.4349	0.1897	0.0000	0.0000;
	104	1	0	0	0	0	1	1.09252374	-1.13161541	220	3	1.11	0.95	137.4445	0.1899	0.0000	0.0000;
	105	1	0	0	0	0	1	1.0931966	-2.31566466	220	3	1.11	0.95	139.4780	0.1951	0.0000	0.0000;
	106	1	0	0	0	0	1	1.09321755	-2.31831764	220	3	1.11	0.95	139.4808	0.1962	0.0000	0.0000;
	107	1	0	0	0	0	1	1.04985854	-1.20818381	400	3	1.05	0.95	138.7950	0.0253	0.0000	0.0000;
	108	1	0	0	0	0	1	1.04986765	-1.20233448	400	3	1.05	0.95	138.7888	0.0245	0.0000	0.0000;
	109	1	0	0	0	0	1	1.09885806	-0.787987902	220	3	1.11	0.95	136.6556	0.0794	0.0000	0.0000;
	110	1	0	0	0	0	1	1.09887654	-0.782081399	220	3	1.11	0.95	136.6507	0.0795	0.0000	0.0000;
	111	1	0	0	0	0	1	1.07618048	-0.262823965	220	3	1.11	0.95	135.2714	0.4437	0.0000	0.0000;
	112	1	0	0	0	0	1	1.07605099	-0.271783394	220	3	1.11	0.95	135.2730	0.4455	0.0000	0.0000;
	113	2	38.41	12.71	0	0	1	1.08812777	-1.99518154	220	3	1.11	0.95	139.5272	0.1139	0.0000	0.0000;
	114	1	0	0	0	0	1	1.08812389	-2.00252076	220	3	1.11	0.95	139.5317	0.1142	0.0000	0.0000;
	115	1	0	0	0	0	1	1.08575261	-5.10772239	220	3	1.11	0.95	141.6907	0.1941	0.0000	0.0000;
	116	1	0	0	0	0	1	1.08575931	-5.10724921	220	3	1.11	0.95	141.6895	0.1949	0.0000	0.0000;
	117	1	0	0	0	0	1	1.04526888	-3.69905169	220	3	1.11	0.95	143.5009	0.5508	0.0000	0.0000;
	118	1	0	0	0	0	1	1.04518693	-3.69637259	220	3	1.11	0.95	143.5085	0.5498	0.0000	0.0000;
	119	2	10	44	0	0	1	1.10525979	0.212598974	220	3	1.11	0.95	135.6241	0.0000	0.0000	0.0000;
	120	2	10	44	0	0	1	1.10532323	0.193464671	220	3	1.11	0.95	135.6243	0.0012	0.0000	0.0000;
	121	2	7	18	0	0	1	1.10140795	-0.665776073	220	3	1.11	0.95	136.6838	0.0001	0.0000	0.0000;
	122	2	8	21	0	0	1	1.10143898	-0.654111023	220	3	1.11	0.95	136.6734	-0.0000	0.0000	0.0000;
	123	1	0	0	0	0	1	1.08673964	-2.82628312	220	3	1.11	0.95	140.1941	0.1367	0.0000	0.0000;
	124	1	59.4	11.61	0	0	1	1.08675321	-2.83357738	220	3	1.11	0.95	140.1944	0.1375	0.0000	0.0000;
	125	1	0	0	0	0	1	1.04802191	-4.18653579	220	3	1.11	0.95	142.7388	1.0145	0.0000	0.0000;
	126	1	0	0	0	0	1	1.07840787	-0.409315451	220	3	1.11	0.95	137.9399	0.7181	0.0000	0.0000;
	127	1	0	0	0	0	1	1.07842107	-0.41313857	220	3	1.11	0.95	137.9434	0.7172	0.0000	0.0000;
	128	1	0	0	0	0	1	1.07824982	-1.41518673	220	3	1.11	0.95	139.2638	0.4165	0.0000	0.0000;
	129	1	0	0	0	0	1	1.07835574	-1.4113266	220	3	1.11	0.95	139.2589	0.4148	0.0000	0.0000;
	130	1	0	0	0	0	1	1.04050768	-1.04632249	400	3	1.05	0.95	137.7675	-1.1392	0.0000	0.0000;
	131	1	0	0	0	0	1	1.04050768	-1.04632249	400	3	1.05	0.95	137.7675	-1.1392	0.0000	0.0000;
	132	2	0	1.78	0	0	1	1.09102489	-1.61148497	220	3	1.11	0.95	139.0406	0.0245	0.0000	0.0000;
	133	2	9	20	0	0	1	1.09096286	-1.61020265	220	3	1.11	0.95	139.0466	0.0253	0.0000	0.0000;
	134	2	6	15	0	0	1	1.06070007	-3.15580071	220	3	1.11	0.95	141.3787	0.8204	0.0000	0.0000;
	135	1	0	0	0	0	1	1.06078464	-3.15942972	220	3	1.11	0.95	141.3779	0.8202	0.0000	0.0000;
	136	1	0	0	0	0	1	1.04446451	-4.69087682	400	3	1.05	0.95	141.0013	-0.7159	0.0000	0.0000;
	137	1	0	0	0	0	1	1.04451398	-4.68687929	400	3	1.05	0.95	140.9958	-0.7192	0.0000	0.0000;
	138	1	0	0	0	0	1	1.04999055	-2.12187809	400	3	1.05	0.95	138.7968	-2.2620	0.3935	0.0000;
	139	1	0	0	0	0	1	1.05	-2.12325843	400	3	1.05	0.95	138.8009	-2.2714	30085.5056	0.0000;
	140	1	0	0	0	0	1	1.04029709	-4.46746544	220	3	1.11	0.95	143.2351	1.2344	0.0000	0.0000;
	141	1	0	0	0	0	1	1.04032432	-4.46381635	220	3	1.11	0.95	143.2325	1.2348	0.0000	0.0000;
	142	2	18.2	37.21	0	0	1	1.10203816	1.2630037	220	3	1.11	0.95	134.5044	-0.0000	0.0000	0.0000;
	143	2	41.52	73.01	0	0	1	1.10216296	1.27529657	220	3	1.11	0.95	134.5041	0.0000	0.0000	0.0000;
	144	2	28	66	0	0	1	1.03995761	0.662967891	400	3	1.05	0.95	136.5178	-0.3459	0.0000	0.0000;
	145	1	0	0	0	0	1	1.03999694	0.655549896	400	3	1.05	0.95	136.5196	-0.3498	0.0000	0.0000;
	146	1	0	0	0	0	1	1.09063131	-2.62332704	220	3	1.11	0.95	139.8220	0.2562	0.0000	0.0000;
	147	1	0	0	0	0	1	1.09067798	-2.61655309	220	3	1.11	0.95	139.8117	0.2545	0.0000	0.0000;
	148	1	0	0	0	0	1	1.09558965	-0.662384472	220	3	1.11	0.95	137.7362	0.0305	0.0000	0.0000;
	149	1	0	0	0	0	1	1.09253105	-2.36376253	220	3	1.11	0.95	139.4753	0.2169	0.0000	0.0000;
	150	2	0	-0.79	0	0	1	1.05872815	-3.71821042	220	3	1.11	0.95	142.5724	0.4129	0.0000	0.0000;
	151	2	0	-0.79	0	0	1	1.05848579	-3.71852711	220	3	1.11	0.95	142.5893	0.4129	0.0000	0.0000;
	152	2	7.7	20	0	0	1	1.0922894	-7.90835035	220	4	1.11	0.95	142.1352	0.0000	0.0000	0.0000;
	153	2	7.8	20	0	0	1	1.09229013	-7.91344753	220	4	1.11	0.95	142.1384	0.0000	0.0000	0.0000;
	154	1	0	0	0	0	1	1.06336412	-9.62892916	220	4	1.11	0.95	141.4081	1.3738	0.0000	0.0000;
	155	1	0	0	0	0	1	1.06336842	-9.62930048	220	4	1.11	0.95	141.4094	1.3750	0.0000	0.0000;
	156	1	0	0	0	0	1	1.03990068	-10.7082511	220	4	1.11	0.95	142.2965	1.2945	0.0000	0.0000;
	157	1	0	0	0	0	1	1.08141949	-8.4942846	220	4	1.11	0.95	140.4070	0.7977	0.0000	0.0000;
	158	1	0	0	0	0	1	1.0813314	-8.50057962	220	4	1.11	0.95	140.4111	0.7999	0.0000	0.0000;
	159	1	0	0	0	0	1	1.03297281	-5.9504449	400	4	1.05	0.95	140.1698	0.8330	0.0000	0.0000;
	160	1	0	0	0	0	1	1.0329569	-5.95115692	400	4	1.05	0.95	140.1701	0.8334	0.0000	0.0000;
	161	1	0	0	0	0	1	1.04064733	-17.198632	220	4	1.11	0.95	149.1997	2.1097	0.0000	0.0000;
	162	1	0	0	0	0	1	1.08484541	-28.6788368	220	4	1.11	0.95	164.8103	0.8472	0.0000	0.0000;
	163	1	0	0	0	0	1	1.08484541	-28.6788368	220	4	1.11	0.95	164.8103	0.8472	0.0000	0.0000;
	164	1	0	0	0	0	1	1.06404279	-24.6079394	220	4	1.11	0.95	158.8211	2.2448	0.0000	0.0000;
	165	1	0	0	0	0	1	1.06404279	-24.6079394	220	4	1.11	0.95	158.8211	2.2448	0.0000	0.0000;
	166	1	0	0	0	0	1	1.03612474	-10.9068109	220	4	1.11	0.95	142.4373	1.2833	0.0000	0.0000;
	167	2	0	-13.01	0	0	1	1.08479702	-10.9070893	220	4	1.11	0.95	143.7928	0.0672	0.0000	0.0000;
	168	1	0	0	0	0	1	1.0848441	-10.9106165	220	4	1.11	0.95	143.7944	0.0709	0.0000	0.0000;
	169	2	12	30	0	0	1	1.10996163	-27.409451	220	4	1.11	0.95	163.1649	0.1453	0.1361	0.0000;
	170	2	19.91	36.57	0	0	1	1.10999999	-27.3955059	220	4	1.11	0.95	163.1600	0.1449	541.5650	0.0000;
	171	2	12	30	0	0	1	1.03434527	-20.8542707	400	4	1.05	0.95	150.8621	-0.0020	0.0000	0.0000;
	172	2	12	30	0	0	1	1.03436707	-20.8438612	400	4	1.05	0.95	150.8525	0.0000	0.0000	0.0000;
	173	1	0	0	0	0	1	1.00844953	-18.1422687	220	4	1.11	0.95	150.0039	2.8437	0.0000	0.0000;
	174	1	0	0	0	0	1	1.00849424	-18.1465924	220	4	1.11	0.95	150.0064	2.8426	0.0000	0.0000;
	175	1	0	0	0	0	1	1.0375221	-18.6653315	220	4	1.11	0.95	151.3740	3.6182	0.0000	0.0000;
	176	1	0	0	0	0	1	1.03763503	-18.6601698	220	4	1.11	0.95	151.3765	3.6178	0.0000	0.0000;
	177	2	30.5	64.2	0	0	1	1.11	-5.99671564	220	4	1.11	0.95	139.0097	0.0000	2463.8724	0.0000;
	178	2	58.9	96	0	0	1	1.11	-5.99207488	220	4	1.11	0.95	139.0100	0.0000	3479.1011	0.0000;
	179	1	0	0	0	0	1	1.11	-5.99207488	220	4	1.11	0.95	139.0094	-0.0066	3479.1011	0.0000;
	180	2	26.5	64.2	0	0	1	1.04915632	-2.93167299	400	4	1.05	0.95	138.7826	0.0264	0.0000	0.0000;
	181	1	0	0	0	0	1	1.0491178	-2.93148592	400	4	1.05	0.95	138.7828	0.0275	0.0000	0.0000;
	182	1	0	0	0	0	1	1.08938368	-28.6403381	220	4	1.11	0.95	164.7600	0.6749	0.0000	0.0000;
	183	1	0	0	0	0	1	1.08938368	-28.6403381	220	4	1.11	0.95	164.7600	0.6749	0.0000	0.0000;
	184	1	0	0	0	0	1	1.03443963	-4.84008759	400	4	1.05	0.95	140.3594	0.6390	0.0000	0.0000;
	185	1	0	0	0	0	1	1.01820457	-10.5877119	400	4	1.05	0.95	139.7898	-0.4373	0.0000	0.0000;
	186	1	0	0	0	0	1	1.0351023	-4.49035905	400	4	1.05	0.95	139.1285	0.4716	0.0000	0.0000;
	187	1	0	0	0	0	1	1.03513882	-4.48022957	400	4	1.05	0.95	139.1205	0.4718	0.0000	0.0000;
	188	2	12	30	0	0	1	1.08699216	-10.8675107	220	4	1.11	0.95	143.7196	0.0301	0.0000	0.0000;
	189	2	23.8	60	0	0	1	1.08695328	-10.8905238	220	4	1.11	0.95	143.7337	0.0327	0.0000	0.0000;
	190	2	38	64	0	0	1	1.00545998	-4.15320259	400	4	1.05	0.95	143.3446	0.0000	0.0000	0.0000;
	191	1	0	0	0	0	1	1.03787823	-23.2046924	220	4	1.11	0.95	155.3714	1.4983	0.0000	0.0000;
	192	1	0	0	0	0	1	1.03791165	-23.212496	220	4	1.11	0.95	155.3760	1.4958	0.0000	0.0000;
	193	1	0	0	0	0	1	1.08333799	-28.7450467	220	4	1.11	0.95	164.8761	0.9091	0.0000	0.0000;
	194	1	0	0	0	0	1	1.08333364	-28.7458399	220	4	1.11	0.95	164.8766	0.9092	0.0000	0.0000;
	195	1	0	0	0	0	1	1.04414009	-17.4200152	220	4	1.11	0.95	148.8928	2.0471	0.0000	0.0000;
	196	1	0	0	0	0	1	1.04405322	-17.4272023	220	4	1.11	0.95	148.8981	2.0508	0.0000	0.0000;
	197	1	0	0	0	0	1	1.00117917	-14.7507194	400	4	1.05	0.95	147.5193	2.0110	0.0000	0.0000;
	198	1	0	0	0	0	1	1.02645542	-14.701999	220	4	1.11	0.95	146.6708	3.0699	0.0000	0.0000;
	199	1	0	0	0	0	1	1.02646454	-14.6972123	220	4	1.11	0.95	146.6660	3.0671	0.0000	0.0000;
	200	1	0	0	0	0	1	1.03538741	-18.1113747	220	4	1.11	0.95	149.7410	2.3299	0.0000	0.0000;
	201	1	0	0	0	0	1	1.06324389	-9.24823735	220	4	1.11	0.95	141.2561	1.3541	0.0000	0.0000;
	202	1	0	0	0	0	1	1.06321234	-9.25755631	220	4	1.11	0.95	141.2596	1.3529	0.0000	0.0000;
	203	1	0	0	0	0	1	1.05526702	-7.62355939	220	4	1.11	0.95	139.6670	1.6132	0.0000	0.0000;
	204	2	0	-7.17	0	0	1	1.03889261	-18.675547	220	4	1.11	0.95	151.3742	3.5563	0.0000	0.0000;
	205	1	0	0	0	0	1	1.01559131	-16.3159257	220	4	1.11	0.95	148.6729	3.6062	0.0000	0.0000;
	206	1	0	0	0	0	1	1.01561686	-16.2999377	220	4	1.11	0.95	148.6570	3.6020	0.0000	0.0000;
	207	1	0	0	0	0	1	1.05025062	-20.0579364	220	5	1.11	0.95	150.9247	0.3337	0.0000	0.0000;
	208	1	0	0	0	0	1	1.10383413	-21.9375755	220	5	1.11	0.95	152.3480	-0.8142	0.0000	0.0000;
	209	1	0	0	0	0	1	1.04403518	-20.8919613	400	5	1.05	0.95	151.5866	-0.7394	0.0000	0.0000;
	210	1	0	0	0	0	1	1.04404244	-20.893549	400	5	1.05	0.95	151.5869	-0.7386	0.0000	0.0000;
	211	1	0	0	0	0	1	1.0362865	-19.3993241	400	5	1.05	0.95	151.3459	0.0892	0.0000	0.0000;
	212	1	0	0	0	0	1	1.03627917	-19.4035598	400	5	1.05	0.95	151.3510	0.0885	0.0000	0.0000;
	213	1	0	0	0	0	1	1.03490921	-25.0259669	400	5	1.05	0.95	153.4967	0.3526	0.0000	0.0000;
	214	1	0	0	0	0	1	1.03751752	-23.6428	220	5	1.11	0.95	154.6676	0.7339	0.0000	0.0000;
	215	1	0	0	0	0	1	1.03752777	-23.6473911	220	5	1.11	0.95	154.6710	0.7340	0.0000	0.0000;
	216	1	0	0	0	0	1	1.07011223	-19.7790749	220	5	1.11	0.95	150.4355	0.3830	0.0000	0.0000;
	217	1	0	0	0	0	1	1.07002227	-19.783114	220	5	1.11	0.95	150.4383	0.3837	0.0000	0.0000;
	218	1	0	0	0	0	1	1.02607794	-17.6929266	400	5	1.05	0.95	149.7517	0.5683	0.0000	0.0000;
	219	1	0	0	0	0	1	1.02607794	-17.6929266	400	5	1.05	0.95	149.7517	0.5683	0.0000	0.0000;
	220	1	0	0	0	0	1	1.04701552	-22.2317864	400	5	1.05	0.95	150.2840	0.6660	0.0000	0.0000;
	221	1	0	0	0	0	1	1.056758	-19.1288594	220	5	1.11	0.95	150.4472	0.3040	0.0000	0.0000;
	222	1	0	0	0	0	1	1.05673757	-19.1355694	220	5	1.11	0.95	150.4498	0.3032	0.0000	0.0000;
	223	1	0	0	0	0	1	1.0668448	-23.3307879	220	5	1.11	0.95	150.3546	-0.4157	0.0000	0.0000;
	224	1	0	0	0	0	1	1.07073849	-21.9579136	220	5	1.11	0.95	153.1959	-0.1796	0.0000	0.0000;
	225	1	0	0	0	0	1	1.03573832	-21.5241161	400	5	1.05	0.95	152.9456	-0.1019	0.0000	0.0000;
	226	1	0	0	0	0	1	1.03570735	-21.5249473	400	5	1.05	0.95	152.9469	-0.1011	0.0000	0.0000;
	227	1	0	0	0	0	1	1.04705766	-24.7325855	400	5	1.05	0.95	154.1500	-0.0771	0.0000	0.0000;
	228	1	0	0	0	0	1	1.06372219	-22.1536549	220	5	1.11	0.95	153.4691	-0.0258	0.0000	0.0000;
	229	1	0	0	0	0	1	1.0637781	-22.1510046	220	5	1.11	0.95	153.4665	-0.0264	0.0000	0.0000;
	230	1	0	0	0	70	1	1.05	-19.9437436	400	5	1.05	0.95	151.0688	-1.0725	7098.7797	0.0000;
	231	1	0	0	0	0	1	1.04998374	-19.9474241	400	5	1.05	0.95	151.0724	-1.0714	0.2273	0.0000;
	232	1	0	0	0	0	1	1.03868369	-20.2958394	220	5	1.11	0.95	151.7163	1.1356	0.0000	0.0000;
	233	1	0	0	0	0	1	1.03861541	-20.2935413	220	5	1.11	0.95	151.7177	1.1367	0.0000	0.0000;
	234	1	0	0	0	0	1	1.04042257	-18.2692416	220	5	1.11	0.95	150.4152	1.1838	0.0000	0.0000;
	235	1	0	0	0	0	1	1.04034557	-18.2828076	220	5	1.11	0.95	150.4222	1.1845	0.0000	0.0000;
	236	2	11	40	0	0	1	1.037334	-18.0091069	400	5	1.05	0.95	150.4207	-0.0000	0.0000	0.0000;
	237	2	5	10	0	0	1	1.03734313	-18.0089944	400	5	1.05	0.95	150.4217	-0.0000	0.0000	0.0000;
	238	1	0	0	0	0	1	1.07215681	-23.2130362	220	5	1.11	0.95	154.3094	-0.1511	0.0000	0.0000;
	239	1	0	0	0	0	1	1.07223591	-23.2100831	220	5	1.11	0.95	154.3043	-0.1530	0.0000	0.0000;
	240	2	8	20	0	0	0	1.11	3.62897811	220	0	1.11	0.95	133.2156	-0.0000	1585.3793	0.0000;
	241	1	9.86	2	0	0	1	1.06592554	-22.7893432	110	1	1.12	0.95	156.8275	1.5880	0.0000	0.0000;
	242	1	6.41	0	0	0	1	1.07789151	-28.2694248	110	1	1.12	0.95	162.0927	-1.8081	0.0000	0.0000;
	243	1	9.37	0.6	0	0	1	1.07784912	-28.2675464	110	1	1.12	0.95	162.0998	-1.8071	0.0000	0.0000;
	244	1	7.25	4	0	0	1	1.1013119	-17.6145434	110	1	1.12	0.95	147.3598	0.4269	0.0000	0.0000;
	245	1	0	0	0	0	1	1.10132975	-17.6293492	110	1	1.12	0.95	147.3705	0.4171	0.0000	0.0000;
	246	1	2.18	2.4	0	0	1	1.0404301	-21.0210563	110	1	1.12	0.95	155.9196	5.1395	0.0000	0.0000;
	247	1	5.12	4.91	0	0	1	1.04039259	-21.0231275	110	1	1.12	0.95	155.9212	5.1409	0.0000	0.0000;
	248	1	3.65	0.9	0	0	1	1.0950928	-2.4103884	110	1	1.12	0.95	139.0317	0.4468	0.0000	0.0000;
	249	1	3.85	1	0	0	1	1.09850067	-2.53992885	110	1	1.12	0.95	138.5645	0.3436	0.0000	0.0000;
	250	2	4.44	-1.76	0	0	1	1.10365927	-23.0108709	110	1	1.12	0.95	152.0602	-0.1004	0.0000	0.0000;
	251	2	2.5	0	0	0	1	1.10364264	-23.0027771	110	1	1.12	0.95	152.0589	-0.0990	0.0000	0.0000;
	252	1	17.76	1.2	0	0	1	1.10463535	-22.8121875	110	1	1.12	0.95	151.6726	-0.0145	0.0000	0.0000;
	253	1	12.33	2.1	0	0	1	1.10498025	-22.7122634	110	1	1.12	0.95	151.5695	-0.0048	0.0000	0.0000;
	254	1	7.41	0.99	0	0	1	1.10496985	-22.7226092	110	1	1.12	0.95	151.5745	-0.0062	0.0000	0.0000;
	255	1	4.93	0	0	0	1	1.10680153	-22.5253821	110	1	1.12	0.95	151.1001	0.0135	0.0000	0.0000;
	256	1	4.93	0	0	0	1	1.10675267	-22.5415966	110	1	1.12	0.95	151.1106	0.0126	0.0000	0.0000;
	257	1	14.8	2.5	0	0	1	1.10535859	-22.716835	110	1	1.12	0.95	151.4518	0.0094	0.0000	0.0000;
	258	1	5.42	1.1	0	0	1	1.10414761	-22.8829489	110	1	1.12	0.95	151.8073	-0.0267	0.0000	0.0000;
	259	1	4.44	1	0	0	1	1.10413636	-22.8887747	110	1	1.12	0.95	151.8129	-0.0281	0.0000	0.0000;
	260	1	2.96	0.5	0	0	1	1.10366644	-23.0505186	110	1	1.12	0.95	152.0840	-0.1133	0.0000	0.0000;
	261	1	5.42	0.6	0	0	1	1.10361501	-23.0538886	110	1	1.12	0.95	152.0954	-0.1167	0.0000	0.0000;
	262	1	0	0	0	0	1	1.10550794	-23.0694811	110	1	1.12	0.95	152.0839	-0.2139	0.0000	0.0000;
	263	1	2.96	0.9	0	0	1	1.07702492	-19.769766	110	1	1.12	0.95	152.9792	1.7628	0.0000	0.0000;
	264	1	5.33	1.5	0	0	1	1.07711785	-19.7638891	110	1	1.12	0.95	152.9732	1.7642	0.0000	0.0000;
	265	1	3.45	0.7	0	0	1	1.09087908	-19.4582341	110	1	1.12	0.95	150.3229	0.2503	0.0000	0.0000;
	266	1	3.45	0.7	0	0	1	1.090843	-19.4699244	110	1	1.12	0.95	150.3303	0.2559	0.0000	0.0000;
	267	2	4.34	1.8	0	0	1	1.10022651	-11.2858412	110	1	1.12	0.95	143.3591	0.4807	0.0000	0.0000;
	268	2	4.34	1.8	0	0	1	1.08119737	-8.08293154	110	1	1.12	0.95	148.0364	0.9784	0.0000	0.0000;
	269	1	6.25	2	0	0	1	1.09527113	-18.8817966	110	1	1.12	0.95	149.5252	0.6618	0.0000	0.0000;
	270	1	6.69	3	0	0	1	1.09528755	-18.8841422	110	1	1.12	0.95	149.5260	0.6650	0.0000	0.0000;
	271	1	0.49	0.2	0	0	1	1.08370429	-5.15787904	110	1	1.12	0.95	142.5889	0.7689	0.0000	0.0000;
	272	1	0.79	0.2	0	0	1	1.08362873	-5.17404196	110	1	1.12	0.95	142.5973	0.7707	0.0000	0.0000;
	273	1	1.18	-0.9	0	0	1	1.09713408	-0.680599738	110	1	1.12	0.95	137.5246	0.2949	0.0000	0.0000;
	274	1	4.74	0.5	0	0	1	1.10159462	-18.8874356	110	1	1.12	0.95	149.3895	0.9828	0.0000	0.0000;
	275	1	0	0	0	0	1	1.10158365	-18.9081245	110	1	1.12	0.95	149.3938	0.9864	0.0000	0.0000;
	276	1	3.16	0.1	0	0	1	1.09220636	-25.1253778	110	1	1.12	0.95	155.9800	-2.1789	0.0000	0.0000;
	277	1	7.4	1.3	0	0	1	1.08754152	-23.1161723	110	1	1.12	0.95	154.6324	0.5139	0.0000	0.0000;
	278	1	10.36	1.3	0	0	1	1.08744074	-23.1209996	110	1	1.12	0.95	154.6439	0.5113	0.0000	0.0000;
	279	1	2.27	1.11	0	0	1	1.11228	-7.91000978	110	1	1.12	0.95	141.4688	0.7151	0.0000	0.0000;
	280	1	5.33	1.6	0	0	1	1.09616691	-19.2589661	110	1	1.12	0.95	150.0643	0.8054	0.0000	0.0000;
	281	1	2.07	0.1	0	0	1	1.09621834	-19.2498452	110	1	1.12	0.95	150.0593	0.8042	0.0000	0.0000;
	282	2	1.87	0.09	0	0	1	1.10514577	-8.83165272	110	1	1.12	0.95	142.8918	0.8566	0.0000	0.0000;
	283	2	1.87	0.31	0	0	1	1.104989	-8.85408134	110	1	1.12	0.95	142.9043	0.8602	0.0000	0.0000;
	284	1	8.58	3	0	0	1	1.0857017	-19.6419693	110	1	1.12	0.95	151.4469	1.3620	0.0000	0.0000;
	285	1	1.58	0.4	0	0	1	1.09894467	-2.48040304	110	1	1.12	0.95	138.4764	0.3362	0.0000	0.0000;
	286	1	4.44	1.1	0	0	1	1.09892694	-2.48423749	110	1	1.12	0.95	138.4783	0.3365	0.0000	0.0000;
	287	1	5.33	0.5	0	0	1	1.0717246	-10.4281792	110	1	1.12	0.95	146.2887	1.1236	0.0000	0.0000;
	288	1	4.64	0.4	0	0	1	1.07173317	-10.4240087	110	1	1.12	0.95	146.2872	1.1237	0.0000	0.0000;
	289	1	13.89	7.76	0	0	1	1.08760522	-2.05864923	110	1	1.12	0.95	138.3355	0.6229	0.0000	0.0000;
	290	1	19.52	11.23	0	0	1	1.08755939	-2.0758732	110	1	1.12	0.95	138.3400	0.6247	0.0000	0.0000;
	291	1	6.81	0.5	0	0	1	1.08580139	-22.139368	110	1	1.12	0.95	154.3274	0.6554	0.0000	0.0000;
	292	1	9.57	3.84	0	0	1	1.11384024	-7.67338889	110	1	1.12	0.95	141.3792	0.6065	0.0000	0.0000;
	293	1	0	0	0	0	1	1.11383373	-7.67036765	110	1	1.12	0.95	141.3798	0.6063	0.0000	0.0000;
	294	1	8.38	0.8	0	0	1	1.08463556	-22.3748073	110	1	1.12	0.95	154.6445	0.6534	0.0000	0.0000;
	295	1	0	0	0	0	1	1.08464804	-22.376022	110	1	1.12	0.95	154.6441	0.6558	0.0000	0.0000;
	296	1	3.95	0.4	0	0	1	1.08466164	-23.5854771	110	1	1.12	0.95	155.0428	0.4938	0.0000	0.0000;
	297	1	5.42	0.6	0	0	1	1.07880655	-23.3587371	110	1	1.12	0.95	155.2691	0.9084	0.0000	0.0000;
	298	1	2.47	0.3	0	0	1	1.07874219	-23.3571462	110	1	1.12	0.95	155.2727	0.9084	0.0000	0.0000;
	299	1	0	0	0	0	1	1.09395365	-24.6329841	110	1	1.12	0.95	155.3168	-0.3285	0.0000	0.0000;
	300	1	0.49	0.2	0	0	1	1.09397237	-24.6473478	110	1	1.12	0.95	155.3164	-0.3289	0.0000	0.0000;
	301	2	0.17	0.3	0	0	1	1.0851234	-20.5720772	110	1	1.12	0.95	152.3074	0.8745	0.0000	0.0000;
	302	2	0.06	0.1	0	0	1	1.08520094	-20.5823374	110	1	1.12	0.95	152.3074	0.8764	0.0000	0.0000;
	303	1	5.92	0.7	0	0	1	1.08048876	-27.167489	110	1	1.12	0.95	160.4836	-1.1694	0.0000	0.0000;
	304	1	0.3	0.1	0	0	1	1.10324936	-4.28466209	110	1	1.12	0.95	140.4597	0.7058	0.0000	0.0000;
	305	1	0.4	0.1	0	0	1	1.09977968	-4.28146165	110	1	1.12	0.95	142.3458	0.8222	0.0000	0.0000;
	306	1	10.06	7.01	0	0	1	1.10139836	-4.33777973	110	1	1.12	0.95	140.6550	0.8424	0.0000	0.0000;
	307	1	0.49	0.2	0	0	1	1.09975559	-4.28214805	110	1	1.12	0.95	142.3483	0.8240	0.0000	0.0000;
	308	1	8.09	1.3	0	0	1	1.08394373	-23.5548108	110	1	1.12	0.95	155.5719	1.4127	0.0000	0.0000;
	309	1	4.74	0.4	0	0	1	1.08398226	-23.5633416	110	1	1.12	0.95	155.5702	1.4114	0.0000	0.0000;
	310	1	4.74	1.74	0	0	1	1.10445408	-8.66181801	110	1	1.12	0.95	142.7532	0.9780	0.0000	0.0000;
	311	1	2.86	-1.4	0	0	1	1.10194402	-4.42393875	110	1	1.12	0.95	141.0084	0.6722	0.0000	0.0000;
	312	1	2.86	-1.4	0	0	1	1.10200807	-4.41318295	110	1	1.12	0.95	140.9777	0.6711	0.0000	0.0000;
	313	1	3.08	2	0	0	1	1.10104714	-20.400656	110	1	1.12	0.95	150.6920	0.1218	0.0000	0.0000;
	314	1	0	0	0	0	1	1.09659754	-0.640507299	110	1	1.12	0.95	137.5110	0.3205	0.0000	0.0000;
	315	1	0	0	0	0	1	1.09665525	-0.670665135	110	1	1.12	0.95	137.5201	0.3226	0.0000	0.0000;
	316	2	20	40	0	0	1	1.00654819	3.2127169	24	1	1.12	0.95	137.6144	0.0074	0.0000	0.0000;
	317	1	4.93	1	0	0	1	1.08941927	-26.4227437	110	1	1.12	0.95	157.5158	-3.1009	0.0000	0.0000;
	318	1	2.96	0.7	0	0	1	1.08942377	-26.4365195	110	1	1.12	0.95	157.5158	-3.0957	0.0000	0.0000;
	319	1	3.95	1	0	0	1	1.09626253	-26.3233851	110	1	1.12	0.95	156.7032	-1.5609	0.0000	0.0000;
	320	1	1.48	0.2	0	0	1	1.09620213	-25.5915122	110	1	1.12	0.95	155.5197	-3.3860	0.0000	0.0000;
	321	1	0	0	0	45	1	1.11996387	-25.8989897	16	1	1.12	0.95	155.3801	-3.0779	0.1036	0.0000;
	322	2	0	-3.42	0	0	1	1.06922094	-17.830223	110	1	1.12	0.95	149.3659	2.3985	0.0000	0.0000;
	323	1	5.42	1	0	0	1	1.10390493	-22.9581122	110	1	1.12	0.95	151.9004	-0.0452	0.0000	0.0000;
	324	1	6.41	1	0	0	1	1.1039102	-22.9519173	110	1	1.12	0.95	151.8951	-0.0435	0.0000	0.0000;
	325	1	1.97	0	0	0	1	1.07407306	-29.2850551	110	1	1.12	0.95	163.9845	-2.4513	0.0000	0.0000;
	326	1	4.74	0.7	0	0	1	1.11117408	-17.3567998	110	1	1.12	0.95	147.2978	0.3171	0.0000	0.0000;
	327	1	0	0	0	0	1	1.11115968	-17.3636542	110	1	1.12	0.95	147.2997	0.3177	0.0000	0.0000;
	328	1	9.99	5.11	0	0	1	1.0871385	-12.1097685	110	1	1.12	0.95	146.7080	1.4164	0.0000	0.0000;
	329	1	7.68	4.5	0	0	1	1.08708873	-12.1152366	110	1	1.12	0.95	146.7111	1.4175	0.0000	0.0000;
	330	1	18.57	4	0	0	1	1.08421035	-19.8407773	110	1	1.12	0.95	151.6728	1.4136	0.0000	0.0000;
	331	1	17.67	7.31	0	0	1	1.08423464	-19.8390457	110	1	1.12	0.95	151.6686	1.4130	0.0000	0.0000;
	332	1	5.92	1	0	0	1	1.08283813	-28.3294202	110	1	1.12	0.95	160.8769	-1.2293	0.0000	0.0000;
	333	1	6.91	1	0	0	1	1.08284737	-28.3268569	110	1	1.12	0.95	160.8763	-1.2334	0.0000	0.0000;
	334	1	36.5	2	0	0	1	1.08601254	-26.2689131	110	1	1.12	0.95	157.8783	-2.3550	0.0000	0.0000;
	335	1	3.95	0.5	0	0	1	1.08750614	-26.1309104	110	1	1.12	0.95	157.6031	-2.5569	0.0000	0.0000;
	336	1	3.75	0.7	0	0	1	1.07868507	-2.61958792	110	1	1.12	0.95	140.1796	1.2281	0.0000	0.0000;