function mpc = case2746wp
%CASE2746WP

%% MATPOWER Case Format : Version 2
mpc.version = '2';

%%-----  Power Flow Data  -----%%
%% system MVA base
mpc.baseMVA = 100;

%% bus data
%	bus_i	type	Pd	Qd	Gs	Bs	area	Vm	Va	baseKV	zone	Vmax	Vmin	lam_P	lam_Q	mu_Vmax	mu_Vmin
mpc.bus = [
	1	1	0	0	0	0	1	1.10032862	-0.63377567	220	1	1.11	0.95	98.3744	0.1941	0.0000	0.0000;
	2	1	0	0	0	0	1	1.10174852	1.19648743	220	1	1.11	0.95	98.0077	0.1561	0.0000	0.0000;
	3	1	0	0	0	0	1	1.06394683	-26.5141901	220	1	1.11	0.95	113.7038	0.8260	0.0000	0.0000;
	4	1	0	0	0	0	1	1.08489014	-6.13063738	220	1	1.11	0.95	101.3652	0.7513	0.0000	0.0000;
	5	1	0	0	0	0	1	1.08495307	-6.13327455	220	1	1.11	0.95	101.3671	0.7499	0.0000	0.0000;
	6	1	0	0	0	0	1	1.05935974	-17.7703945	220	1	1.11	0.95	106.7426	1.2090	0.0000	0.0000;
	7	1	0	0	0	0	1	1.05950849	-17.7623246	220	1	1.11	0.95	106.7341	1.2053	0.0000	0.0000;
	8	1	0	0	0	0	1	1.02884282	-13.4624065	400	1	1.05	0.95	105.2759	0.6824	0.0000	0.0000;
	9	1	0	0	0	0	1	1.02885725	-13.4578489	400	1	1.05	0.95	105.2733	0.6808	0.0000	0.0000;
	10	1	0	0	0	0	1	1.04059567	-17.7644022	220	1	1.11	0.95	107.8104	1.8201	0.0000	0.0000;
	11	1	0	0	0	0	1	1.04049348	-17.749891	220	1	1.11	0.95	107.8092	1.8229	0.0000	0.0000;
	12	1	0	0	0	0	1	1.04052696	-17.7406096	220	1	1.11	0.95	107.8069	1.8222	0.0000	0.0000;
	13	1	0	0	0	0	1	1.02742549	-11.705825	400	1	1.05	0.95	104.4308	1.0376	0.0000	0.0000;
	14	1	0	0	0	0	1	1.02747076	-11.6956928	400	1	1.05	0.95	104.4252	1.0352	0.0000	0.0000;
	15	1	0	0	0	0	1	1.02778395	-16.558028	400	1	1.05	0.95	106.1309	0.0493	0.0000	0.0000;
	16	1	0	0	0	0	1	1.02778395	-16.558028	400	1	1.05	0.95	106.1309	0.0493	0.0000	0.0000;
	17	2	11	40	0	0	1	1.10446237	-21.4699079	220	1	1.11	0.95	109.6343	0.0006	0.0000	0.0000;
	18	2	14	40	0	0	1	1.1044813	-21.4684702	220	1	1.11	0.95	109.6329	-0.0000	0.0000	0.0000;
	19	1	0	0	0	0	1	1.08981933	-4.96980504	220	1	1.11	0.95	100.6881	0.6094	0.0000	0.0000;
	20	1	0	0	0	0	1	1.08985604	-4.96867537	220	1	1.11	0.95	100.6896	0.6086	0.0000	0.0000;
	21	1	0	0	0	0	1	1.06034511	-19.2477295	220	1	1.11	0.95	108.3982	1.3103	0.0000	0.0000;
	22	1	0	0	0	0	1	1.0602785	-19.2496139	220	1	1.11	0.95	108.3994	1.3116	0.0000	0.0000;
	23	1	0	0	0	0	1	1.04385008	-17.6356941	220	1	1.11	0.95	107.7280	1.7348	0.0000	0.0000;
	24	1	0	0	0	0	1	1.09185292	-2.83062928	220	1	1.11	0.95	99.8206	0.5316	0.0000	0.0000;
	25	1	0	0	0	0	1	1.01541509	-13.8581656	400	1	1.05	0.95	105.5001	0.4758	0.0000	0.0000;
	26	2	46.738	72.054	0	0	1	1.11	-0.270150948	220	1	1.11	0.95	98.1924	-0.0000	1865.9574	0.0000;
	27	2	85.493	122.06	0	0	1	1.11	1.45586787	220	1	1.11	0.95	97.8899	-0.0000	2490.1207	0.0000;
	28	3	60	110	0	0	1	1.0460387	0	400	1	1.05	0.95	98.8278	-0.1664	0.0000	0.0000;
	29	2	60.097	90	0	0	1	1.04607799	0.00579695503	400	1	1.05	0.95	98.8236	-0.1653	0.0000	0.0000;
	30	1	0	0	0	0	1	1.04795943	-18.5523955	220	1	1.11	0.95	108.3421	1.5140	0.0000	0.0000;
	31	1	0	0	0	0	1	1.04572663	-1.43689034	400	1	1.05	0.95	98.9358	-0.4913	0.0000	0.0000;
	32	1	0	0	0	0	1	1.03828202	-18.1090226	220	1	1.11	0.95	108.0472	1.8718	0.0000	0.0000;
	33	1	0	0	0	0	1	1.09185866	-2.82956162	220	1	1.11	0.95	99.8203	0.5315	0.0000	0.0000;
	34	1	0	0	0	0	1	1.0924995	-9.55944308	220	1	1.11	0.95	103.0507	0.5278	0.0000	0.0000;
	35	1	0	0	0	0	1	1.08950722	-13.1485034	220	2	1.11	0.95	104.6854	0.0233	0.0000	0.0000;
	36	1	0	0	0	0	1	1.09250411	-12.8388534	220	2	1.11	0.95	104.6888	-0.0238	0.0000	0.0000;
	37	1	0	0	0	0	1	1.09703568	-11.0887393	220	2	1.11	0.95	103.5650	-0.0742	0.0000	0.0000;
	38	1	0	0	0	0	1	1.09702661	-11.0931271	220	2	1.11	0.95	103.5673	-0.0740	0.0000	0.0000;
	39	1	0	0	0	0	1	1.07608062	-15.992915	220	2	1.11	0.95	106.6833	-0.1635	0.0000	0.0000;
	40	1	0	0	0	0	1	1.10409954	-9.38740273	220	2	1.11	0.95	102.8064	-0.2165	0.0000	0.0000;
	41	1	0	0	0	0	1	1.10405513	-9.38561156	220	2	1.11	0.95	102.8062	-0.2161	0.0000	0.0000;
	42	1	0	0	0	0	1	1.04358921	-9.73263287	400	2	1.05	0.95	102.8380	-0.3194	0.0000	0.0000;
	43	2	11.436	0	0	0	1	1.11	-9.843648	220	2	1.11	0.95	102.8977	0.0000	987.2805	0.0000;
	44	2	24	0	0	0	1	1.10999995	-9.81600161	220	2	1.11	0.95	102.8880	-0.0000	320.0982	0.0000;
	45	2	20	0	0	0	1	1.04864677	-10.5520641	400	2	1.05	0.95	103.5790	-0.0000	0.0000	0.0000;
	46	1	0	0	0	0	1	1.04867548	-10.5538324	400	2	1.05	0.95	103.5778	-0.0016	0.0000	0.0000;
	47	1	0	0	0	0	1	1.10032763	-9.97750498	220	2	1.11	0.95	103.2258	-0.1347	0.0000	0.0000;
	48	1	0	0	0	0	1	1.03532111	-15.4890811	400	2	1.05	0.95	104.6825	-0.3487	0.0000	0.0000;
	49	1	0	0	0	0	1	1.03529064	-15.4980696	400	2	1.05	0.95	104.6868	-0.3479	0.0000	0.0000;
	50	1	0	0	0	0	1	1.05	-11.6899532	400	2	1.05	0.95	103.9832	-0.4296	2592.5645	0.0000;
	51	1	0	0	0	0	1	1.08320126	-14.8314075	220	2	1.11	0.95	106.0279	-0.1069	0.0000	0.0000;
	52	1	0	0	0	0	1	1.08318655	-14.8310297	220	2	1.11	0.95	106.0289	-0.1070	0.0000	0.0000;
	53	1	0	0	0	0	1	1.04401775	-11.1750429	400	2	1.05	0.95	103.5554	-0.2207	0.0000	0.0000;
	54	1	0	0	0	0	1	1.04401807	-11.1734424	400	2	1.05	0.95	103.5543	-0.2215	0.0000	0.0000;
	55	2	12	0	0	0	1	1.10261167	-9.40415467	220	2	1.11	0.95	102.6833	-0.1315	0.0000	0.0000;
	56	2	11.436	0	0	0	1	1.10252439	-9.40093962	220	2	1.11	0.95	102.6795	-0.1290	0.0000	0.0000;
	57	2	12	0	0	0	1	1.0456662	-10.159642	400	2	1.05	0.95	102.9710	-0.4565	0.0000	0.0000;
	58	2	11.436	0	0	0	1	1.04568865	-10.164608	400	2	1.05	0.95	102.9735	-0.4564	0.0000	0.0000;
	59	2	167.518	60	0	0	1	1.10173467	-11.3209589	220	2	1.11	0.95	103.6458	0.0435	0.0000	0.0000;
	60	1	0	0	0	0	1	1.10174239	-11.3209903	220	2	1.11	0.95	103.6452	0.0429	0.0000	0.0000;
	61	1	0	0	0	0	1	1.10054519	-10.1355053	220	2	1.11	0.95	103.1641	-0.1614	0.0000	0.0000;
	62	1	0	0	0	0	1	1.10360405	-11.066589	220	2	1.11	0.95	103.6641	0.0299	0.0000	0.0000;
	63	1	0	0	0	0	1	1.10360175	-11.0698063	220	2	1.11	0.95	103.6648	0.0304	0.0000	0.0000;
	64	1	0	0	0	0	1	1.04686531	-11.7509158	400	2	1.05	0.95	103.3544	-0.6459	0.0000	0.0000;
	65	1	0	0	0	0	1	1.04684966	-11.7630208	400	2	1.05	0.95	103.3582	-0.6463	0.0000	0.0000;
	66	1	0	0	0	0	1	1.08932631	-12.666845	220	2	1.11	0.95	104.3270	-0.0116	0.0000	0.0000;
	67	1	0	0	0	0	1	1.09145524	-12.4220848	220	2	1.11	0.95	104.1835	-0.0374	0.0000	0.0000;
	68	1	0	0	0	0	1	1.08362102	-14.3196709	220	2	1.11	0.95	105.8228	-0.0582	0.0000	0.0000;
	69	1	0	0	0	0	1	1.10054008	-4.47595287	220	3	1.11	0.95	100.1539	-0.1713	0.0000	0.0000;
	70	1	7.123	0	0	0	1	1.09805084	-9.69820058	220	3	1.11	0.95	103.0181	0.0328	0.0000	0.0000;
	71	1	8.31	0.933	0	0	1	1.09801932	-9.70087539	220	3	1.11	0.95	103.0204	0.0336	0.0000	0.0000;
	72	1	0	0	0	0	1	1.10591698	-4.35012236	220	3	1.11	0.95	99.8544	0.0997	0.0000	0.0000;
	73	1	0	0	0	0	1	1.10596909	-4.34101179	220	3	1.11	0.95	99.8510	0.0985	0.0000	0.0000;
	74	1	0	0	0	0	1	1.10132958	-4.76739895	220	3	1.11	0.95	100.0425	0.1134	0.0000	0.0000;
	75	1	0	0	0	0	1	1.10129049	-4.77152691	220	3	1.11	0.95	100.0443	0.1139	0.0000	0.0000;
	76	1	0	0	0	0	1	1.10849471	-3.41568783	220	3	1.11	0.95	99.5289	0.0370	0.0000	0.0000;
	77	1	0	0	0	0	1	1.10846323	-3.42366553	220	3	1.11	0.95	99.5332	0.0381	0.0000	0.0000;
	78	2	27	70	0	0	1	1.11	-3.73041254	220	3	1.11	0.95	99.5073	0.0000	745.1130	0.0000;
	79	2	9	21	0	0	1	1.10913706	-3.90486696	220	3	1.11	0.95	99.6315	-0.0000	0.0000	0.0000;
	80	1	10.328	2.61	0	0	1	1.09847043	-5.13609676	220	3	1.11	0.95	100.4234	0.2763	0.0000	0.0000;
	81	1	0	0	0	0	1	1.09848677	-5.13483218	220	3	1.11	0.95	100.4228	0.2761	0.0000	0.0000;
	82	2	35	108	0	0	1	1.04335644	-3.66512208	400	3	1.05	0.95	99.2060	-0.0000	0.0000	0.0000;
	83	1	0	0	0	0	1	1.10849647	-6.51362448	220	3	1.11	0.95	100.5207	0.3126	0.0000	0.0000;
	84	1	0	0	0	0	1	1.10653409	-3.93298631	220	3	1.11	0.95	99.4393	0.0552	0.0000	0.0000;
	85	1	0	0	0	0	1	1.106537	-3.93488692	220	3	1.11	0.95	99.4413	0.0556	0.0000	0.0000;
	86	1	37.893	12.351	0	0	1	1.10112717	-4.34763711	220	3	1.11	0.95	99.9862	-0.1392	0.0000	0.0000;
	87	1	0	0	0	0	1	1.10109505	-4.35358473	220	3	1.11	0.95	99.9881	-0.1395	0.0000	0.0000;
	88	1	0	0	0	0	1	1.10404223	-3.87076145	220	3	1.11	0.95	99.3750	0.0871	0.0000	0.0000;
	89	1	0	0	0	0	1	1.10402112	-3.87212223	220	3	1.11	0.95	99.3763	0.0877	0.0000	0.0000;
	90	1	0	0	0	0	1	1.1043565	-3.90435039	220	3	1.11	0.95	99.7743	-0.1588	0.0000	0.0000;
	91	1	0	0	0	0	1	1.10433424	-3.90987771	220	3	1.11	0.95	99.7769	-0.1588	0.0000	0.0000;
	92	1	0	0	0	0	1	1.04558189	-2.28084856	400	3	1.05	0.95	99.4957	-0.2629	0.0000	0.0000;
	93	1	0	0	0	0	1	1.04558669	-2.28271587	400	3	1.05	0.95	99.4959	-0.2633	0.0000	0.0000;
	94	1	0	0	0	0	1	1.10782852	-3.64271746	220	3	1.11	0.95	99.0466	0.0209	0.0000	0.0000;
	95	1	0	0	0	0	1	1.10786791	-3.64205299	220	3	1.11	0.95	99.0460	0.0207	0.0000	0.0000;
	96	1	0	0	0	0	1	1.1052129	-5.57641082	220	3	1.11	0.95	100.2136	0.1872	0.0000	0.0000;
	97	1	0	0	0	0	1	1.10523909	-5.58106608	220	3	1.11	0.95	100.2145	0.1879	0.0000	0.0000;
	98	1	16.027	7.274	0	0	1	1.10545082	-4.67114367	220	3	1.11	0.95	100.0499	-0.0315	0.0000	0.0000;
	99	1	7.764	0.258	0	0	1	1.10543738	-4.67617741	220	3	1.11	0.95	100.0520	-0.0320	0.0000	0.0000;
	100	1	0	0	0	0	1	1.09810079	-9.68180554	220	3	1.11	0.95	103.0093	0.0329	0.0000	0.0000;
	101	1	0	0	0	0	1	1.09808243	-9.68153365	220	3	1.11	0.95	103.0085	0.0334	0.0000	0.0000;
	102	1	0	0	0	0	1	1.10364897	-4.48309305	220	3	1.11	0.95	100.1612	0.1646	0.0000	0.0000;
	103	1	0	0	0	0	1	1.10358191	-4.49318901	220	3	1.11	0.95	100.1658	0.1661	0.0000	0.0000;
	104	2	14	40	0	0	1	1.11	-3.3780063	220	3	1.11	0.95	99.0713	0.0000	369.8018	0.0000;
	105	2	14	40	0	0	1	1.11	-3.37859902	220	3	1.11	0.95	99.0686	-0.0000	478.3198	0.0000;
	106	2	7	18	0	0	1	1.10764114	-3.5692399	220	3	1.11	0.95	99.1326	0.0000	0.0000	0.0000;
	107	2	8	15	0	0	1	1.10761334	-3.56916114	220	3	1.11	0.95	99.1345	-0.0000	0.0000	0.0000;
	108	1	1.044	0	0	0	1	1.10335259	-5.15099134	220	3	1.11	0.95	100.3181	-0.0866	0.0000	0.0000;
	109	1	1.259	0	0	0	1	1.10339481	-5.15752166	220	3	1.11	0.95	100.3196	-0.0859	0.0000	0.0000;
	110	1	0	0	0	0	1	1.10355338	-6.39059082	220	3	1.11	0.95	101.1858	0.0197	0.0000	0.0000;
	111	1	0	0	0	0	1	1.09500768	-5.1691562	220	3	1.11	0.95	100.4777	0.3796	0.0000	0.0000;
	112	1	0	0	0	0	1	1.09503163	-5.16895638	220	3	1.11	0.95	100.4775	0.3792	0.0000	0.0000;
	113	1	0	0	0	0	1	1.09951834	-5.04658825	220	3	1.11	0.95	100.3689	0.2577	0.0000	0.0000;
	114	1	0	0	0	0	1	1.0995863	-5.03663363	220	3	1.11	0.95	100.3647	0.2563	0.0000	0.0000;
	115	1	0	0	0	0	1	1.04390058	-5.95321826	400	3	1.05	0.95	100.4354	-1.3327	0.0000	0.0000;
	116	2	0	0	0	0	1	1.1077376	-4.38346392	220	3	1.11	0.95	99.8886	0.0005	0.0000	0.0000;
	117	2	8	15	0	0	1	1.10776723	-4.37668686	220	3	1.11	0.95	99.8867	-0.0000	0.0000	0.0000;
	118	2	5.5	10	0	0	1	1.10791675	-5.71984063	220	3	1.11	0.95	100.8743	-0.0654	0.0000	0.0000;
	119	1	0	0	0	0	1	1.10787856	-5.73179922	220	3	1.11	0.95	100.8793	-0.0647	0.0000	0.0000;
	120	1	0	0	0	0	1	1.04866239	-10.3646201	400	3	1.05	0.95	102.8673	-0.8614	0.0000	0.0000;
	121	1	0	0	0	0	1	1.04870067	-10.3567928	400	3	1.05	0.95	102.8631	-0.8634	0.0000	0.0000;
	122	1	0	0	0	0	1	1.04999256	-6.14941304	400	3	1.05	0.95	100.5835	-2.3748	0.1319	0.0000;
	123	1	0	0	0	0	1	1.05	-6.14409711	400	3	1.05	0.95	100.5818	-2.3839	29789.0400	0.0000;
	124	1	0	0	0	0	1	1.10388273	-6.50056565	220	3	1.11	0.95	101.3356	-0.0040	0.0000	0.0000;
	125	2	18.343	21.865	0	0	1	1.10829449	-3.95618499	220	3	1.11	0.95	99.5447	-0.0000	0.0000	0.0000;
	126	2	28.469	34.292	0	0	1	1.10825172	-3.95774142	220	3	1.11	0.95	99.5476	0.0025	0.0000	0.0000;
	127	2	28	66	0	0	1	1.04261362	-5.12633935	400	3	1.05	0.95	100.0365	-0.6138	0.0000	0.0000;
	128	1	0	0	0	0	1	1.04263016	-5.12875923	400	3	1.05	0.95	100.0374	-0.6168	0.0000	0.0000;
	129	1	0	0	0	0	1	1.10035241	-4.47087248	220	3	1.11	0.95	100.0426	-0.1423	0.0000	0.0000;
	130	1	0	0	0	0	1	1.10037826	-4.46720046	220	3	1.11	0.95	100.0396	-0.1422	0.0000	0.0000;
	131	1	0	0	0	0	1	1.10264649	-4.15873381	220	3	1.11	0.95	99.8751	-0.1404	0.0000	0.0000;
	132	2	3	18	0	0	1	1.11	-2.69591251	220	3	1.11	0.95	99.1845	0.0000	859.2956	0.0000;
	133	2	2	6	0	0	1	1.11	-3.06943844	220	3	1.11	0.95	99.3615	0.0000	427.7304	0.0000;
	134	2	15.447	12.88	0	0	1	1.11	-10.7707649	220	4	1.11	0.95	103.4751	0.0000	523.1097	0.0000;
	135	2	5.255	-0.357	0	0	1	1.10987505	-10.7802862	220	4	1.11	0.95	103.4781	0.0024	0.0000	0.0000;
	136	1	0	0	0	0	1	1.08040577	-12.9913928	220	4	1.11	0.95	102.4344	0.8593	0.0000	0.0000;
	137	1	0	0	0	0	1	1.08625848	-11.1749901	220	4	1.11	0.95	101.2402	0.6887	0.0000	0.0000;
	138	1	0	0	0	0	1	1.02076285	-9.91334365	400	4	1.05	0.95	101.1421	0.6369	0.0000	0.0000;
	139	1	0	0	0	0	1	1.0207735	-9.91479965	400	4	1.05	0.95	101.1429	0.6367	0.0000	0.0000;
	140	1	0	0	0	0	1	1.09294188	-21.5654769	220	4	1.11	0.95	110.4318	0.4187	0.0000	0.0000;
	141	1	0	0	0	0	1	1.09367422	-27.8890285	220	4	1.11	0.95	114.1457	0.4043	0.0000	0.0000;
	142	1	0	0	0	0	1	1.09367422	-27.8890285	220	4	1.11	0.95	114.1457	0.4043	0.0000	0.0000;
	143	1	0	0	0	0	1	1.09792953	-24.8478338	220	4	1.11	0.95	111.2376	0.8977	0.0000	0.0000;
	144	1	0	0	0	0	1	1.09674231	-13.5264934	220	4	1.11	0.95	101.8455	0.4789	0.0000	0.0000;
	145	1	0	0	0	0	1	1.09674231	-13.5264934	220	4	1.11	0.95	101.8455	0.4789	0.0000	0.0000;
	146	2	10.954	-0.465	0	0	1	1.109661	-13.5919807	220	4	1.11	0.95	104.8791	0.0239	0.0000	0.0000;
	147	2	10.812	-0.465	0	0	1	1.10964056	-13.6027212	220	4	1.11	0.95	104.8816	0.0252	0.0000	0.0000;
	148	2	11.5	6.86	0	0	1	1.11	-25.7138856	220	4	1.11	0.95	112.3062	-0.0000	1716.4892	0.0000;
	149	1	1.634	3.038	0	0	1	1.10999579	-25.7086331	220	4	1.11	0.95	112.3021	0.0006	0.2391	0.0000;
	150	2	8.087	-0.38	0	0	1	1.03673839	-22.2344477	400	4	1.05	0.95	111.3309	-0.2391	0.0000	0.0000;
	151	2	16.174	-0.76	0	0	1	1.03677049	-22.2302066	400	4	1.05	0.95	111.3278	-0.2400	0.0000	0.0000;
	152	1	0	0	0	0	1	1.05771772	-21.6779159	220	4	1.11	0.95	111.0870	1.8418	0.0000	0.0000;
	153	1	0	0	0	0	1	1.07456118	-20.2876688	220	4	1.11	0.95	108.1671	1.8512	0.0000	0.0000;
	154	1	0	0	0	0	1	1.07464383	-20.2813574	220	4	1.11	0.95	108.1623	1.8494	0.0000	0.0000;
	155	2	30.555	-3.555	0	0	1	1.11	-7.01644579	220	4	1.11	0.95	98.9818	-0.0000	3306.2598	0.0000;
	156	2	14.679	-3.566	0	0	1	1.11	-8.1138161	220	4	1.11	0.95	99.5942	-0.0000	8253.8050	0.0000;
	157	1	0	0	0	0	1	1.11	-7.01644579	220	4	1.11	0.95	98.9812	-0.0062	3306.2598	0.0000;
	158	1	0	0	0	0	1	1.03495077	-6.65616277	400	4	1.05	0.95	99.4435	0.1499	0.0000	0.0000;
	159	2	7.385	-1.783	0	0	1	1.03499656	-6.6507301	400	4	1.05	0.95	99.4419	0.1487	0.0000	0.0000;
	160	1	0	0	0	0	1	1.09200923	-28.0996349	220	4	1.11	0.95	114.4109	0.4216	0.0000	0.0000;
	161	1	0	0	0	0	1	1.09200923	-28.0996349	220	4	1.11	0.95	114.4109	0.4216	0.0000	0.0000;
	162	1	0	0	0	0	1	1.0177487	-10.8919918	400	4	1.05	0.95	101.7744	0.8236	0.0000	0.0000;
	163	1	0	0	0	0	1	1.0248924	-9.35184888	400	4	1.05	0.95	101.0258	0.5677	0.0000	0.0000;
	164	1	0	0	0	0	1	1.02489209	-9.35395975	400	4	1.05	0.95	101.0262	0.5676	0.0000	0.0000;
	165	2	4.293	-8.964	0	0	1	1.10999999	-13.6891125	220	4	1.11	0.95	104.8998	-0.0000	543.3631	0.0000;
	166	2	23.077	7.176	0	0	1	1.11	-13.7075902	220	4	1.11	0.95	104.9103	0.0000	1069.3473	0.0000;
	167	1	0	0	0	0	1	1.10999999	-13.6891125	220	4	1.11	0.95	104.8997	-0.0010	543.3631	0.0000;
	168	1	0	0	0	0	1	1.0808453	-26.4138844	220	4	1.11	0.95	113.8324	0.1587	0.0000	0.0000;
	169	1	0	0	0	0	1	1.09283131	-28.0011979	220	4	1.11	0.95	114.2341	0.4188	0.0000	0.0000;
	170	1	0	0	0	0	1	1.08637283	-22.5025391	220	4	1.11	0.95	111.1719	0.5563	0.0000	0.0000;
	171	1	0	0	0	0	1	1.08627583	-22.496049	220	4	1.11	0.95	111.1696	0.5579	0.0000	0.0000;
	172	1	0	0	0	0	1	1.00572474	-23.5396236	400	4	1.05	0.95	111.5160	0.4782	0.0000	0.0000;
	173	1	0	0	0	0	1	1.00572474	-23.5396236	400	4	1.05	0.95	111.5160	0.4782	0.0000	0.0000;
	174	1	0	0	0	0	1	1.04760767	-17.9194932	220	4	1.11	0.95	107.8162	2.5881	0.0000	0.0000;
	175	1	0	0	0	0	1	1.04761978	-17.9126263	220	4	1.11	0.95	107.8153	2.5879	0.0000	0.0000;
	176	1	0	0	0	0	1	1.0847618	-23.0315307	220	4	1.11	0.95	111.4608	0.5797	0.0000	0.0000;
	177	1	0	0	0	0	1	1.08672471	-12.50371	220	4	1.11	0.95	102.1860	0.7110	0.0000	0.0000;
	178	1	0	0	0	0	1	1.08676418	-12.4974313	220	4	1.11	0.95	102.1857	0.7103	0.0000	0.0000;
	179	1	0	0	0	0	1	1.08996435	-11.971084	220	4	1.11	0.95	102.2860	0.6849	0.0000	0.0000;
	180	1	0	0	0	0	1	1.08996435	-11.971084	220	4	1.11	0.95	102.2860	0.6849	0.0000	0.0000;
	181	1	0	0	0	0	1	1.04489655	-19.4456477	220	4	1.11	0.95	108.4820	2.6673	0.0000	0.0000;
	182	1	0	0	0	0	1	1.0474507	-21.8375219	220	5	1.11	0.95	109.5758	-0.0771	0.0000	0.0000;
	183	1	0	0	0	0	1	1.11	-23.4498522	220	5	1.11	0.95	110.9318	-1.5132	3354.8176	0.0000;
	184	1	0	0	0	0	1	1.03628373	-21.7140489	400	5	1.05	0.95	110.5952	-0.5788	0.0000	0.0000;
	185	1	0	0	0	0	1	1.0363074	-21.7185385	400	5	1.05	0.95	110.5979	-0.5785	0.0000	0.0000;
	186	1	0	0	0	0	1	1.01811083	-21.2396489	400	5	1.05	0.95	110.0240	0.0219	0.0000	0.0000;
	187	1	0	0	0	0	1	1.0181308	-21.2437124	400	5	1.05	0.95	110.0268	0.0219	0.0000	0.0000;
	188	1	0	0	0	0	1	1.02171097	-25.0784449	220	5	1.11	0.95	112.0797	0.4727	0.0000	0.0000;
	189	1	0	0	0	0	1	1.02178689	-25.0798858	220	5	1.11	0.95	112.0803	0.4720	0.0000	0.0000;
	190	1	0	0	0	0	1	1.07165108	-22.6540386	220	5	1.11	0.95	109.8380	-0.4571	0.0000	0.0000;
	191	1	0	0	0	0	1	1.07153489	-22.6555579	220	5	1.11	0.95	109.8387	-0.4580	0.0000	0.0000;
	192	1	0	0	0	0	1	0.991118263	-19.9305868	400	5	1.05	0.95	108.9892	0.0688	0.0000	0.0000;
	193	1	0	0	0	0	1	1.05680472	-21.0181649	220	5	1.11	0.95	109.2390	0.0979	0.0000	0.0000;
	194	1	0	0	0	0	1	1.05688261	-21.0143049	220	5	1.11	0.95	109.2380	0.0981	0.0000	0.0000;
	195	1	0	0	0	0	1	1.00745402	-23.2225233	400	5	1.05	0.95	111.2203	0.1140	0.0000	0.0000;
	196	1	0	0	0	0	1	1.00740657	-23.2274892	400	5	1.05	0.95	111.2236	0.1146	0.0000	0.0000;
	197	1	0	0	0	0	1	1.06278892	-25.7640367	220	5	1.11	0.95	112.7452	0.3220	0.0000	0.0000;
	198	1	0	0	0	0	1	1.06283497	-25.7573196	220	5	1.11	0.95	112.7420	0.3219	0.0000	0.0000;
	199	1	0	0	0	0	1	1.03822843	-19.7898981	400	5	1.05	0.95	109.6034	-0.3090	0.0000	0.0000;
	200	1	0	0	0	0	1	1.038253	-19.7844122	400	5	1.05	0.95	109.6030	-0.3102	0.0000	0.0000;
	201	1	0	0	0	0	1	1.04871779	-23.7533135	220	5	1.11	0.95	111.4570	0.5316	0.0000	0.0000;
	202	1	0	0	0	0	1	1.04867893	-23.7514215	220	5	1.11	0.95	111.4588	0.5344	0.0000	0.0000;
	203	1	0	0	0	0	1	1.05025997	-21.9198602	220	5	1.11	0.95	110.8134	1.0791	0.0000	0.0000;
	204	1	0	0	0	0	1	1.05017951	-21.9339433	220	5	1.11	0.95	110.8196	1.0786	0.0000	0.0000;
	205	2	0	0	0	0	1	1.02491543	-19.8034699	400	5	1.05	0.95	109.4691	-0.0000	0.0000	0.0000;
	206	2	0	0	0	0	1	1.02490535	-19.8031011	400	5	1.05	0.95	109.4693	-0.0000	0.0000	0.0000;
	207	1	0	0	0	0	1	1.07985228	-25.3883085	220	5	1.11	0.95	112.3217	-0.8048	0.0000	0.0000;
	208	1	0	0	0	0	1	1.07987594	-25.3823196	220	5	1.11	0.95	112.3175	-0.8071	0.0000	0.0000;
	209	1	8.101	1.5	0	0	1	1.08173732	-23.5525336	110	1	1.12	0.95	112.0224	-0.1336	0.0000	0.0000;
	210	1	8.101	1	0	0	1	1.07635042	-32.2488563	110	1	1.12	0.95	120.4691	1.5186	0.0000	0.0000;
	211	1	9.114	2	0	0	1	1.08457353	-20.9673424	110	1	1.12	0.95	107.5821	2.2566	0.0000	0.0000;
	212	1	8.911	7.8	0	0	1	1.01585404	-25.9772863	110	1	1.12	0.95	117.0155	5.2414	0.0000	0.0000;
	213	1	4.05	1	0	0	1	1.07383763	-1.99312617	110	1	1.12	0.95	99.1533	0.4620	0.0000	0.0000;
	214	1	9.619	2.5	0	0	1	1.09089916	-3.80649054	110	1	1.12	0.95	99.3535	0.4820	0.0000	0.0000;
	215	2	51.981	24.3	0	0	1	1.10811483	-22.0510797	110	1	1.12	0.95	107.5991	-0.0000	0.0000	0.0000;
	216	1	22.276	2.5	0	0	1	1.10964458	-21.9984949	110	1	1.12	0.95	107.4551	-0.2073	0.0000	0.0000;
	217	1	10.126	2	0	0	1	1.10901842	-22.0369254	110	1	1.12	0.95	107.5199	-0.1506	0.0000	0.0000;
	218	1	11.138	2	0	0	1	1.10809452	-22.2606706	110	1	1.12	0.95	107.8108	-0.0133	0.0000	0.0000;
	219	2	13.163	2.5	0	0	1	1.0767743	-24.0470856	110	1	1.12	0.95	112.4381	1.5915	0.0000	0.0000;
	220	1	9.114	2.25	0	0	1	1.06711115	-23.0577758	110	1	1.12	0.95	110.8181	2.7180	0.0000	0.0000;
	221	2	0	0	0	0	1	1.09416496	-17.7027932	110	1	1.12	0.95	103.9581	1.5274	0.0000	0.0000;
	222	2	11.138	2.4	0	0	1	1.07487113	-10.6858203	110	1	1.12	0.95	104.6648	0.0388	0.0000	0.0000;
	223	2	17.214	3.1	0	0	1	1.08655459	-22.9314213	110	1	1.12	0.95	109.7435	1.7284	0.0000	0.0000;
	224	1	1.519	0.4	0	0	1	1.05437356	-4.64750374	110	1	1.12	0.95	101.5149	0.8097	0.0000	0.0000;
	225	1	5.265	0.8	0	0	1	1.10393394	-23.1554174	110	1	1.12	0.95	109.1531	0.2026	0.0000	0.0000;
	226	1	5.569	0.5	0	0	1	1.09723291	-27.685116	110	1	1.12	0.95	114.2138	0.5429	0.0000	0.0000;
	227	1	19.239	2	0	0	1	1.09750981	-22.893966	110	1	1.12	0.95	109.8784	-0.3939	0.0000	0.0000;
	228	1	11.138	2	0	0	1	1.08721328	-23.329045	110	1	1.12	0.95	110.0066	1.5969	0.0000	0.0000;
	229	2	2.633	1.03	0	0	1	1.09873516	-10.7744678	110	1	1.12	0.95	103.1664	0.5635	0.0000	0.0000;
	230	2	2.633	1.03	0	0	1	1.09892169	-10.7697406	110	1	1.12	0.95	103.1624	0.5607	0.0000	0.0000;
	231	1	16.201	6	0	0	1	1.07501534	-23.4914692	110	1	1.12	0.95	110.8689	2.1836	0.0000	0.0000;
	232	1	10.126	1.1	0	0	1	1.09257876	-3.63864181	110	1	1.12	0.95	99.1593	0.4452	0.0000	0.0000;
	233	1	9.619	1.5	0	0	1	1.06972598	-12.9266327	110	1	1.12	0.95	105.1041	0.7003	0.0000	0.0000;
	234	1	22.277	17	0	0	1	1.07565888	-1.95164726	110	1	1.12	0.95	98.5135	0.5979	0.0000	0.0000;
	235	1	8.607	0.6	0	0	1	1.08619061	-26.0511387	110	1	1.12	0.95	113.1402	0.4124	0.0000	0.0000;
	236	1	13.568	4.41	0	0	1	1.10225208	-9.93802595	110	1	1.12	0.95	101.9462	0.5941	0.0000	0.0000;
	237	1	7.695	0.8	0	0	1	1.0849296	-26.204363	110	1	1.12	0.95	113.3605	0.4544	0.0000	0.0000;
	238	1	10.126	1.5	0	0	1	1.08803333	-25.1349616	110	1	1.12	0.95	112.2037	0.2586	0.0000	0.0000;
	239	2	4.493	1.175	0	0	1	1.06651505	-24.8143033	110	1	1.12	0.95	113.0475	2.2725	0.0000	0.0000;
	240	1	13.872	0.6	0	0	1	1.08814764	-27.4257899	110	1	1.12	0.95	113.8751	0.2908	0.0000	0.0000;
	241	1	7.594	2.19	0	0	1	1.10100453	-10.4034291	110	1	1.12	0.95	102.5869	0.6269	0.0000	0.0000;
	242	1	10.632	0.4	0	0	1	1.11733329	-5.59023107	110	1	1.12	0.95	98.0223	-3.4786	0.0000	0.0000;
	243	1	0	0	0	0	1	1.11744841	-5.5668177	110	1	1.12	0.95	98.0200	-3.4979	0.0000	0.0000;
	244	1	3.038	1.4	0	0	1	1.11322923	-22.4456194	110	1	1.12	0.95	109.2974	0.0385	0.0000	0.0000;
	245	1	0	0	0	0	1	1.08115654	0.0785966	110	1	1.12	0.95	97.8078	0.3061	0.0000	0.0000;
	246	2	1.982	5	0	0	1	1.07668151	3.83906089	22	1	1.12	0.95	98.0876	-0.0000	0.0000	0.0000;
	247	1	11.138	1.5	0	0	1	1.08841907	-29.4156122	110	1	1.12	0.95	116.5067	0.9934	0.0000	0.0000;
	248	1	3.038	0.5	0	0	1	1.1059556	-29.4788284	110	1	1.12	0.95	114.8510	1.0451	0.0000	0.0000;
	249	1	3.038	0.5	0	0	1	1.09998322	-28.1747465	110	1	1.12	0.95	114.2174	0.6269	0.0000	0.0000;
	250	1	4.05	0.5	0	0	1	1.04953055	-34.5922277	110	1	1.12	0.95	126.0644	1.6252	0.0000	0.0000;
	251	1	4.86	0.3	0	0	1	1.10293411	-21.8938328	110	1	1.12	0.95	108.0576	0.6251	0.0000	0.0000;
	252	1	19.239	7	0	0	1	1.08784851	-17.3659089	110	1	1.12	0.95	105.9289	1.3575	0.0000	0.0000;
	253	1	22.276	4	0	0	1	1.07646917	-23.5961974	110	1	1.12	0.95	110.8658	2.0793	0.0000	0.0000;
	254	1	16.201	2	0	0	1	1.0859312	-31.4865417	110	1	1.12	0.95	117.8744	1.3035	0.0000	0.0000;
	255	1	24.302	1.5	0	0	1	1.09368087	-27.6873308	110	1	1.12	0.95	114.0015	0.7749	0.0000	0.0000;
	256	1	5.569	1	0	0	1	1.09504566	-27.8224103	110	1	1.12	0.95	114.0462	0.8036	0.0000	0.0000;
	257	1	4.303	0.6	0	0	1	1.07334164	-1.95082126	110	1	1.12	0.95	99.5889	0.4742	0.0000	0.0000;
	258	1	4.303	0.6	0	0	1	1.07327045	-1.96752757	110	1	1.12	0.95	99.5952	0.4755	0.0000	0.0000;
	259	1	11.24	3.24	0	0	1	1.08753717	-11.7535675	110	1	1.12	0.95	104.4641	0.8638	0.0000	0.0000;
	260	1	7.088	1	0	0	1	1.046191	-35.1950861	110	1	1.12	0.95	126.9812	1.6160	0.0000	0.0000;
	261	1	2.633	1.2	0	0	1	1.09549212	-21.245633	110	1	1.12	0.95	108.1727	1.7547	0.0000	0.0000;
	262	1	11.341	1.8	0	0	1	1.08058957	-20.9694254	110	1	1.12	0.95	108.7603	1.9753	0.0000	0.0000;
	263	1	2.329	1.1	0	0	1	1.08382017	-26.9171114	110	1	1.12	0.95	113.9943	0.4626	0.0000	0.0000;
	264	1	40.503	34	0	0	1	1.08112677	-0.512264683	110	1	1.12	0.95	98.0456	0.3075	0.0000	0.0000;
	265	1	38.479	33	0	0	1	1.08802062	-3.12846001	110	1	1.12	0.95	98.6782	0.5276	0.0000	0.0000;
	266	1	6.075	1	0	0	1	1.07753535	-23.0664162	110	1	1.12	0.95	110.4487	2.1507	0.0000	0.0000;
	267	1	13.67	0.7	0	0	1	1.08396486	-23.8446824	110	1	1.12	0.95	111.0765	1.3713	0.0000	0.0000;
	268	1	9.923	1.8	0	0	1	1.10699141	-21.3775895	110	1	1.12	0.95	107.3994	0.4168	0.0000	0.0000;
	269	1	13.163	1.5	0	0	1	1.09573829	-23.2249874	110	1	1.12	0.95	110.2240	-0.2790	0.0000	0.0000;
	270	1	10.125	1.5	0	0	1	1.05250308	-33.9969894	110	1	1.12	0.95	125.2283	1.6311	0.0000	0.0000;
	271	1	18.227	4.5	0	0	1	1.06769408	-22.2072293	110	1	1.12	0.95	109.4782	2.8406	0.0000	0.0000;
	272	1	0.304	0.1	0	0	1	1.07511849	-23.7114854	110	1	1.12	0.95	112.3951	1.8368	0.0000	0.0000;
	273	1	0.506	0.15	0	0	1	1.09985312	-21.0271997	110	1	1.12	0.95	107.6369	1.4223	0.0000	0.0000;
	274	1	0.202	0.06	0	0	1	1.09019965	-21.4501608	110	1	1.12	0.95	108.2824	1.8617	0.0000	0.0000;
	275	1	12.88	5.8	0	0	1	1.10316188	-9.4479268	110	1	1.12	0.95	101.6528	0.8038	0.0000	0.0000;
	276	1	8.587	3.87	0	0	1	1.10535387	-9.77778621	110	1	1.12	0.95	101.6414	0.6477	0.0000	0.0000;
	277	1	9.619	1.2	0	0	1	1.08076214	-10.2324001	110	1	1.12	0.95	103.8161	-0.1033	0.0000	0.0000;
	278	1	3.038	0.5	0	0	1	1.10453565	-23.1852253	110	1	1.12	0.95	109.1980	0.0869	0.0000	0.0000;
	279	1	8.101	0	0	0	1	1.09922693	-24.5264182	110	1	1.12	0.95	111.3435	0.2855	0.0000	0.0000;
	280	1	15.188	2	0	0	1	1.09711536	-21.1749996	110	1	1.12	0.95	107.9637	1.5182	0.0000	0.0000;
	281	1	9.62	2	0	0	1	1.07324494	-22.3890163	110	1	1.12	0.95	109.7575	2.1439	0.0000	0.0000;
	282	1	17.213	13.999	0	0	1	1.07887728	-2.83337061	110	1	1.12	0.95	98.7365	0.6180	0.0000	0.0000;
	283	1	16.202	13	0	0	1	1.07866306	-2.81634787	110	1	1.12	0.95	98.7364	0.6185	0.0000	0.0000;
	284	1	13.771	4.47	0	0	1	1.10277527	-9.25166022	110	1	1.12	0.95	101.5070	0.8620	0.0000	0.0000;
	285	1	15.189	4	0	0	1	1.09437044	-10.5024615	110	1	1.12	0.95	102.8840	0.9725	0.0000	0.0000;
	286	1	10.126	1	0	0	1	1.09554883	-26.9827727	110	1	1.12	0.95	113.9211	0.4929	0.0000	0.0000;
	287	1	5.063	0	0	0	1	1.10186706	-24.3612191	110	1	1.12	0.95	109.9910	0.3757	0.0000	0.0000;
	288	1	3.037	2.5	0	0	1	1.06586761	-24.0846775	110	1	1.12	0.95	112.0938	2.4380	0.0000	0.0000;
	289	1	4.05	0.501	0	0	1	1.09011936	-12.8997884	110	1	1.12	0.95	105.8197	0.3643	0.0000	0.0000;
	290	1	21.77	6.7	0	0	1	1.07455157	-22.2577548	110	1	1.12	0.95	109.5821	2.1100	0.0000	0.0000;
	291	2	15.999	1.6	0	0	1	1.09644825	-21.3152047	110	1	1.12	0.95	108.1614	1.6247	0.0000	0.0000;
	292	1	8.202	2.37	0	0	1	1.104846	-8.91798325	110	1	1.12	0.95	101.1119	0.8369	0.0000	0.0000;
	293	1	5.366	1	0	0	1	1.08503075	-21.9210246	110	1	1.12	0.95	109.5024	0.3119	0.0000	0.0000;
	294	2	7.493	0.3	0	0	1	1.08126572	-24.3763034	110	1	1.12	0.95	111.9574	1.2817	0.0000	0.0000;
	295	1	13.163	0.4	0	0	1	1.08971117	-12.8322958	110	1	1.12	0.95	105.6868	0.4196	0.0000	0.0000;
	296	1	6.582	1.5	0	0	1	1.09514697	-9.13605774	110	1	1.12	0.95	102.0180	-0.9975	0.0000	0.0000;
	297	1	10.328	3.36	0	0	1	1.09447937	-10.9652294	110	1	1.12	0.95	103.4229	0.7181	0.0000	0.0000;
	298	1	14.885	4.7	0	0	1	1.09739733	-10.8716859	110	1	1.12	0.95	103.3021	0.6105	0.0000	0.0000;
	299	2	15.188	4	0	0	1	1.1045765	-22.8475607	110	1	1.12	0.95	108.7410	-0.1552	0.0000	0.0000;
	300	1	0	0	0	0	1	1.1056177	-9.78194485	110	1	1.12	0.95	101.6415	0.6329	0.0000	0.0000;
	301	1	5.569	1.2	0	0	1	1.04582596	-5.59074383	110	1	1.12	0.95	102.8125	0.9682	0.0000	0.0000;
	302	1	10.835	3.52	0	0	1	1.10494181	-8.90702492	110	1	1.12	0.95	101.0990	0.8352	0.0000	0.0000;
	303	1	13.062	3.77	0	0	1	1.10091166	-10.3891989	110	1	1.12	0.95	102.5640	0.6412	0.0000	0.0000;
	304	1	25.719	7.42	0	0	1	1.10279771	-9.41487963	110	1	1.12	0.95	101.6611	0.8302	0.0000	0.0000;
	305	1	25.72	7.42	0	0	1	1.09493634	-11.0098794	110	1	1.12	0.95	103.4688	0.6842	0.0000	0.0000;
	306	2	97.275	54.72	0	0	1	1.0901068	-10.8506339	110	1	1.12	0.95	103.3262	0.9488	0.0000	0.0000;
	307	2	62.22	22.54	0	0	1	1.09693493	-10.8995068	110	1	1.12	0.95	103.3265	0.6155	0.0000	0.0000;
	308	2	35.918	13.2	0	0	1	1.10304305	-10.4512634	110	1	1.12	0.95	102.6700	0.4597	0.0000	0.0000;
	309	1	0	0	0	0	1	1.09464751	-10.9816507	110	1	1.12	0.95	103.4401	0.7050	0.0000	0.0000;
	310	2	39.452	17.47	0	0	1	1.10475083	-9.35886833	110	1	1.12	0.95	101.5340	0.7416	0.0000	0.0000;
	311	2	30.853	15.45	0	0	1	1.10495171	-9.97003919	110	1	1.12	0.95	101.8847	0.5110	0.0000	0.0000;
	312	1	15.492	0.8	0	0	1	1.09372216	-11.8802429	110	1	1.12	0.95	104.5007	0.4791	0.0000	0.0000;
	313	1	2.531	0.5	0	0	1	1.09976341	-23.0518069	110	1	1.12	0.95	109.4855	-0.2298	0.0000	0.0000;
	314	1	3.038	1	0	0	1	1.0639553	-24.2887883	110	1	1.12	0.95	112.4573	2.5719	0.0000	0.0000;
	315	1	8.606	2.1	0	0	1	1.0633304	-24.7080111	110	1	1.12	0.95	112.9998	2.4953	0.0000	0.0000;
	316	1	11.644	2.6	0	0	1	1.06327308	-24.6985393	110	1	1.12	0.95	112.9942	2.4961	0.0000	0.0000;
	317	1	13.67	3.6	0	0	1	1.07217197	-21.6183243	110	1	1.12	0.95	108.5048	2.7765	0.0000	0.0000;
	318	1	13.366	3.85	0	0	1	1.10300414	-9.30665289	110	1	1.12	0.95	101.5371	0.8469	0.0000	0.0000;
	319	2	19.138	5.52	0	0	1	1.10186173	-9.60329792	110	1	1.12	0.95	101.8359	0.8207	0.0000	0.0000;
	320	1	17.214	3	0	0	1	1.09826714	-24.7611116	110	1	1.12	0.95	111.7719	0.3208	0.0000	0.0000;
	321	1	18.732	6.09	0	0	1	1.10386234	-10.0077046	110	1	1.12	0.95	101.9440	0.5439	0.0000	0.0000;
	322	1	19.138	6.22	0	0	1	1.08831073	-10.9847648	110	1	1.12	0.95	103.4997	1.0048	0.0000	0.0000;
	323	1	8.202	2.66	0	0	1	1.09041509	-10.9408198	110	1	1.12	0.95	103.4269	0.9148	0.0000	0.0000;
	324	1	15.189	3	0	0	1	1.09912665	-24.5653746	110	1	1.12	0.95	111.4263	0.3044	0.0000	0.0000;
	325	1	20.251	3	0	0	1	1.07346411	-24.4498947	110	1	1.12	0.95	112.8486	1.7393	0.0000	0.0000;
	326	1	17.821	5.14	0	0	1	1.09044433	-10.9429987	110	1	1.12	0.95	103.4289	0.9134	0.0000	0.0000;
	327	1	9.619	2	0	0	1	1.09460177	-10.0439542	110	1	1.12	0.95	102.5836	0.0630	0.0000	0.0000;
	328	1	4.557	1	0	0	1	1.09404076	-10.0442602	110	1	1.12	0.95	102.6378	0.0028	0.0000	0.0000;
	329	1	51.743	14.92	0	0	1	1.09921258	-9.78640015	110	1	1.12	0.95	102.0713	0.9071	0.0000	0.0000;
	330	1	18.53	2	0	0	1	1.08654386	-17.4988031	110	1	1.12	0.95	105.9312	-0.5071	0.0000	0.0000;
	331	1	0	0	0	0	1	1.08787499	-11.7628394	110	1	1.12	0.95	104.4643	0.8300	0.0000	0.0000;
	332	1	13.163	3	0	0	1	1.07148763	-24.5864259	110	1	1.12	0.95	113.1428	1.8043	0.0000	0.0000;