function mpc = case300
%CASE300

%% MATPOWER Case Format : Version 2
mpc.version = '2';

%%-----  Power Flow Data  -----%%
%% system MVA base
mpc.baseMVA = 100;

%% bus data
%	bus_i	type	Pd	Qd	Gs	Bs	area	Vm	Va	baseKV	zone	Vmax	Vmin	lam_P	lam_Q	mu_Vmax	mu_Vmin
mpc.bus = [
	1	1	90	49	0	0	1	1.04297572	14.2439174	115	1	1.06	0.94	38.6674	0.1385	0.0000	0.0000;
	2	1	56	15	0	0	1	1.04888646	15.9753742	115	1	1.06	0.94	38.3253	0.1880	0.0000	0.0000;
	3	1	20	0	0	0	1	1.01286799	15.3027553	230	1	1.06	0.94	38.9289	0.2704	0.0000	0.0000;
	4	1	0	0	0	0	1	1.04724253	13.8454846	345	1	1.06	0.94	39.0475	0.3039	0.0000	0.0000;
	5	1	353	130	0	0	1	1.03501206	13.0583183	115	1	1.06	0.94	38.9234	0.2218	0.0000	0.0000;
	6	1	120	41	0	0	1	1.04539448	15.3027995	115	1	1.06	0.94	38.5246	0.2107	0.0000	0.0000;
	7	1	0	0	0	0	1	1.00882138	14.7820427	230	1	1.06	0.94	38.9210	0.2611	0.0000	0.0000;
	8	2	63	14	0	0	1	1.03212478	11.2945858	115	1	1.06	0.94	39.2179	0.4409	0.0000	0.0000;
	9	1	96	43	0	0	1	1.02413677	11.2965015	115	1	1.06	0.94	39.2986	0.3823	0.0000	0.0000;
	10	2	153	33	0	0	1	1.0397375	9.95038226	230	1	1.06	0.94	39.1928	0.2519	0.0000	0.0000;
	11	1	83	21	0	0	1	1.03055596	10.924592	115	1	1.06	0.94	39.2419	0.3351	0.0000	0.0000;
	12	1	0	0	0	0	1	1.012479	13.7443748	230	1	1.06	0.94	39.1291	0.1974	0.0000	0.0000;
	13	1	58	10	0	0	1	1.01971783	8.09379609	115	1	1.06	0.94	39.9855	0.3853	0.0000	0.0000;
	14	1	160	60	0	0	1	1.01275352	5.46064242	115	1	1.06	0.94	40.9463	0.6991	0.0000	0.0000;
	15	1	126.7	23	0	0	1	1.04058587	2.9275363	115	1	1.06	0.94	41.0156	0.1791	0.0000	0.0000;
	16	1	0	0	0	0	1	1.04729408	8.2887597	345	1	1.06	0.94	40.3000	0.2108	0.0000	0.0000;
	17	1	561	220	0	0	1	1.05999939	0.102483503	115	1	1.06	0.94	43.5148	0.0000	250.6083	0.0000;
	19	1	0	0	0	0	1	0.999659895	10.0522809	230	1	1.06	0.94	39.9075	0.3875	0.0000	0.0000;
	20	2	605	120	0	0	1	1.01975658	6.3007352	115	1	1.06	0.94	40.2225	0.3488	0.0000	0.0000;
	21	1	77	1	0	0	1	0.991355441	10.2564501	230	1	1.06	0.94	39.9011	0.3567	0.0000	0.0000;
	22	1	81	23	0	0	1	1.01352871	6.60320291	115	1	1.06	0.94	40.4270	0.3802	0.0000	0.0000;
	23	1	21	7	0	0	1	1.0599999	11.8176289	115	1	1.06	0.94	37.9404	-0.5451	1650.1811	0.0000;
	24	1	0	0	0	0	1	1.01499941	14.0022681	230	1	1.06	0.94	38.7485	0.0000	0.0000	0.0000;
	25	1	45	12	0	0	1	1.03486728	9.43070942	115	1	1.06	0.94	39.4548	-0.2436	0.0000	0.0000;
	26	1	28	9	0	0	1	1.01249761	6.45154657	115	1	1.06	0.94	41.2977	-0.1196	0.0000	0.0000;
	27	1	69	13	0	0	1	0.991517614	3.60357863	115	1	1.06	0.94	42.4799	0.2627	0.0000	0.0000;
	33	1	55	6	0	0	1	1.04239609	-0.467639548	115	1	1.06	0.94	41.2134	0.0788	0.0000	0.0000;
	34	1	0	0	0	0	1	1.05438556	4.52290228	345	1	1.06	0.94	41.0137	0.0536	0.0000	0.0000;
	35	1	0	0	0	0	1	1.01344807	-4.20666702	115	1	1.06	0.94	42.1390	0.2728	0.0000	0.0000;
	36	1	0	0	0	0	1	1.03582414	-2.43287159	230	1	1.06	0.94	42.1396	0.1287	0.0000	0.0000;
	37	1	85	32	0	0	1	1.03843093	-0.304957629	115	1	1.06	0.94	41.3541	0.1315	0.0000	0.0000;
	38	1	155	18	0	0	1	1.03841478	-1.03994563	115	1	1.06	0.94	41.3959	0.1044	0.0000	0.0000;
	39	1	0	0	0	0	1	1.05999976	6.8236149	345	1	1.06	0.94	40.6477	0.0000	661.0216	0.0000;
	40	1	46	-21	0	0	1	1.04033121	-1.24702423	115	1	1.06	0.94	41.5595	0.0544	0.0000	0.0000;
	41	1	86	0	0	0	1	1.04675874	0.582182981	115	1	1.06	0.94	40.9137	0.0552	0.0000	0.0000;
	42	1	0	0	0	0	1	1.05773224	5.13414869	345	1	1.06	0.94	40.8770	0.0318	0.0000	0.0000;
	43	1	39	9	0	0	1	1.02364238	-3.42060287	115	1	1.06	0.94	42.3388	0.1229	0.0000	0.0000;
	44	1	195	29	0	0	1	1.03436713	-2.57285609	115	1	1.06	0.94	41.5762	-0.0000	0.0000	0.0000;
	45	1	0	0	0	0	1	1.04985182	0.325444144	230	1	1.06	0.94	41.4749	-0.0576	0.0000	0.0000;
	46	1	0	0	0	0	1	1.05735564	2.73279413	345	1	1.06	0.94	41.4115	-0.0509	0.0000	0.0000;
	47	1	58	11.8	0	0	1	1.00818657	-6.46679447	115	1	1.06	0.94	43.3726	0.2021	0.0000	0.0000;
	48	1	41	19	0	0	1	1.02101661	-3.44785374	115	1	1.06	0.94	42.2508	0.3471	0.0000	0.0000;
	49	1	92	26	0	0	1	1.03179788	-0.484090952	115	1	1.06	0.94	41.4564	0.2370	0.0000	0.0000;
	51	1	-5	5	0	0	1	1.03191556	-0.382119568	115	1	1.06	0.94	41.4144	0.2366	0.0000	0.0000;
	52	1	61	28	0	0	1	1.01087447	-1.75130545	115	1	1.06	0.94	42.1388	0.4820	0.0000	0.0000;
	53	1	69	3	0	0	1	1.01898117	-4.15442285	115	1	1.06	0.94	42.7128	0.1057	0.0000	0.0000;
	54	1	10	1	0	0	1	1.02766888	-2.77109607	115	1	1.06	0.94	42.0118	0.0401	0.0000	0.0000;
	55	1	22	10	0	0	1	1.03097902	-0.426106231	115	1	1.06	0.94	41.3027	0.0914	0.0000	0.0000;
	57	1	98	20	0	0	1	1.04295843	4.37701976	115	1	1.06	0.94	39.3020	0.0000	0.0000	0.0000;
	58	1	14	1	0	0	1	1.02288219	5.34945441	115	1	1.06	0.94	39.2038	0.3595	0.0000	0.0000;
	59	1	218	106	0	0	1	1.01702746	5.78490066	115	1	1.06	0.94	39.1312	0.3829	0.0000	0.0000;
	60	1	0	0	0	0	1	1.05999989	4.04649784	230	1	1.06	0.94	40.3846	-0.2984	1394.8400	0.0000;
	61	1	227	110	0	0	1	1.03173102	7.39320037	115	1	1.06	0.94	38.8062	0.1741	0.0000	0.0000;
	62	1	0	0	0	0	1	1.05459728	10.1350208	230	1	1.06	0.94	39.0354	0.2160	0.0000	0.0000;
	63	2	70	30	0	0	1	1.03534266	-0.773890774	115	1	1.06	0.94	41.2471	1.0281	0.0000	0.0000;
	64	1	0	0	0	0	1	1.02104874	2.19751848	230	1	1.06	0.94	41.1069	0.8910	0.0000	0.0000;
	69	1	0	0	0	0	1	0.998375561	-5.13039372	115	1	1.06	0.94	43.0648	0.6415	0.0000	0.0000;
	70	1	56	20	0	0	1	0.987589211	-13.0049401	115	1	1.06	0.94	46.2404	0.0970	0.0000	0.0000;
	71	1	116	38	0	0	1	1.01382706	-8.08466916	115	1	1.06	0.94	43.7227	0.0000	0.0000	0.0000;
	72	1	57	19	0	0	1	1.00711739	-5.81637281	115	1	1.06	0.94	42.6566	0.3303	0.0000	0.0000;
	73	1	224	71	0	0	1	1.0117187	-5.68252851	115	1	1.06	0.94	42.6997	0.2086	0.0000	0.0000;
	74	1	0	0	0	0	1	1.03130169	-3.13508059	230	1	1.06	0.94	42.4746	0.1354	0.0000	0.0000;
	76	2	208	107	0	0	1	1.00456387	-4.67150722	115	1	1.06	0.94	42.4850	0.4672	0.0000	0.0000;
	77	1	74	28	0	0	1	1.02139029	-3.40830606	115	1	1.06	0.94	41.7607	0.1991	0.0000	0.0000;
	78	1	0	0	0	0	1	1.0272592	-2.60665447	115	1	1.06	0.94	41.5438	0.1427	0.0000	0.0000;
	79	1	48	14	0	0	1	1.01834559	-3.91579803	115	1	1.06	0.94	42.0666	0.2369	0.0000	0.0000;
	80	1	28	7	0	0	1	1.02219965	-3.29229176	115	1	1.06	0.94	41.9759	0.1589	0.0000	0.0000;
	81	1	0	0	0	0	1	1.05709935	0.437857972	345	1	1.06	0.94	41.8111	-0.1645	0.0000	0.0000;
	84	2	37	13	0	0	1	1.05999961	4.35519012	115	1	1.06	0.94	41.5264	0.0000	410.1205	0.0000;
	85	1	0	0	0	0	1	1.0145492	-4.422807	230	1	1.06	0.94	43.7780	0.0749	0.0000	0.0000;
	86	1	0	0	0	0	1	1.0180396	-1.78602916	230	1	1.06	0.94	42.8176	0.1774	0.0000	0.0000;
	87	1	0	0	0	0	1	1.01508609	3.08658269	230	1	1.06	0.94	41.5493	0.3612	0.0000	0.0000;
	88	1	0	0	0	0	1	1.04517238	-1.50805863	230	1	1.06	0.94	41.9203	-0.0338	0.0000	0.0000;
	89	1	44.2	0	0	0	1	1.0399135	0.612056791	115	1	1.06	0.94	41.5266	0.0217	0.0000	0.0000;
	90	1	66	0	0	0	1	1.04035101	0.308850005	115	1	1.06	0.94	41.2473	0.1001	0.0000	0.0000;
	91	2	17.4	0	0	0	1	1.05645145	2.79347154	115	1	1.06	0.94	40.2702	-0.0000	0.0000	0.0000;
	92	2	15.8	0	0	0	1	1.05999973	5.95609973	115	1	1.06	0.94	39.6904	0.0000	579.0636	0.0000;
	94	1	60.3	0	0	0	1	1.01147393	1.72246486	115	1	1.06	0.94	41.3776	0.5156	0.0000	0.0000;
	97	1	39.9	0	0	0	1	1.03713569	-0.824942272	115	1	1.06	0.94	41.6899	0.0851	0.0000	0.0000;
	98	2	66.7	0	0	0	1	1.03494334	-2.03769282	115	1	1.06	0.94	42.3110	-0.0000	0.0000	0.0000;
	99	1	83.5	0	0	0	1	1.01457136	-6.38889477	115	1	1.06	0.94	44.1243	0.0230	0.0000	0.0000;
	100	1	0	0	0	0	1	1.03219286	-1.9278523	115	1	1.06	0.94	42.2586	0.0814	0.0000	0.0000;
	102	1	77.8	0	0	0	1	1.02682588	-2.64854736	115	1	1.06	0.94	42.6439	0.1335	0.0000	0.0000;
	103	1	32	0	0	0	1	1.04341119	0.427858516	115	1	1.06	0.94	40.9070	0.1722	0.0000	0.0000;
	104	1	8.6	0	0	0	1	1.02237781	-4.27421843	115	1	1.06	0.94	43.4657	-0.1036	0.0000	0.0000;
	105	1	49.6	0	0	0	1	1.03770354	-0.304186316	115	1	1.06	0.94	41.2712	0.2255	0.0000	0.0000;
	107	1	4.6	0	0	0	1	1.02862598	-3.11769258	115	1	1.06	0.94	42.0120	0.2653	0.0000	0.0000;
	108	2	112.1	0	0	0	1	1.01527296	-6.33270568	115	1	1.06	0.94	44.1058	-0.0000	0.0000	0.0000;
	109	1	30.7	0	0	0	1	1.00298819	-10.710174	115	1	1.06	0.94	45.5870	-0.2806	0.0000	0.0000;
	110	1	63	0	0	0	1	1.00032327	-10.0516191	115	1	1.06	0.94	45.6693	-0.1532	0.0000	0.0000;
	112	1	19.6	0	0	0	1	1.00222159	-12.2156412	115	1	1.06	0.94	46.1070	-0.7786	0.0000	0.0000;
	113	1	26.2	0	0	0	1	0.999737117	-9.0078678	115	1	1.06	0.94	44.7474	0.0488	0.0000	0.0000;
	114	1	18.2	0	0	0	1	1.00446836	-11.9483672	115	1	1.06	0.94	45.8729	-0.8069	0.0000	0.0000;
	115	1	0	0	0	0	1	0.979056469	-0.642926104	115	2	1.06	0.94	40.7737	0.4269	0.0000	0.0000;
	116	1	0	0	0	0	1	1.03617722	0.428304252	115	2	1.06	0.94	40.5370	0.2122	0.0000	0.0000;
	117	1	0	0	0	325	1	0.954043956	8.02281171	115	2	1.06	0.94	40.6572	0.1661	0.0000	0.0000;
	118	1	14.1	650	0	0	1	0.949105275	8.6383843	115	2	1.06	0.94	40.6050	0.1845	0.0000	0.0000;
	119	2	0	0	0	0	1	1.05999989	18.1255113	115	2	1.06	0.94	40.5720	0.0000	1472.1413	0.0000;
	120	1	777	215	0	55	1	0.976090492	4.52248388	115	2	1.06	0.94	40.5536	0.0894	0.0000	0.0000;
	121	1	535	55	0	0	1	1.00600381	0.491143427	115	2	1.06	0.94	40.7295	0.2960	0.0000	0.0000;
	122	1	229.1	11.8	0	0	1	0.991739832	-1.57823471	115	2	1.06	0.94	41.0225	0.2854	0.0000	0.0000;
	123	1	78	1.4	0	0	1	1.01655838	-4.63513703	115	2	1.06	0.94	42.2461	-0.0669	0.0000	0.0000;
	124	2	276.4	59.3	0	0	1	1.03328731	-0.384993069	115	2	1.06	0.94	40.7957	0.0000	0.0000	0.0000;
	125	2	514.8	82.7	0	0	1	1.03153996	-5.60135249	115	2	1.06	0.94	41.8631	0.0136	0.0000	0.0000;
	126	1	57.9	5.1	0	0	1	1.0179661	-1.28294628	115	2	1.06	0.94	41.5215	0.1276	0.0000	0.0000;
	127	1	380.8	37	0	0	1	1.01124299	-0.568508537	230	2	1.06	0.94	41.3436	0.2243	0.0000	0.0000;
	128	1	0	0	0	0	1	1.01403211	4.36587252	230	2	1.06	0.94	40.5436	0.4140	0.0000	0.0000;
	129	1	0	0	0	0	1	1.01585557	4.8353293	230	2	1.06	0.94	40.4854	0.4147	0.0000	0.0000;
	130	1	0	0	0	0	1	1.03440534	14.0970311	230	2	1.06	0.94	39.0068	0.3429	0.0000	0.0000;
	131	1	0	0	0	0	1	1.00126752	14.6351969	230	2	1.06	0.94	38.9729	0.3390	0.0000	0.0000;
	132	1	0	0	0	0	1	1.02130645	11.8163648	230	2	1.06	0.94	39.3339	0.4460	0.0000	0.0000;
	133	1	0	0	0	0	1	1.01196913	3.55594932	230	2	1.06	0.94	40.7035	0.4242	0.0000	0.0000;
	134	1	0	0	0	0	1	1.02280446	1.39346728	230	2	1.06	0.94	40.9032	-0.0729	0.0000	0.0000;
	135	1	169.2	41.6	0	0	1	1.02322829	2.09882688	230	2	1.06	0.94	40.7458	-0.2810	0.0000	0.0000;
	136	1	55.2	18.2	0	0	1	1.05452917	9.11006585	230	2	1.06	0.94	39.3937	-0.9535	0.0000	0.0000;
	137	1	273.6	99.8	0	0	1	1.04819864	6.78245661	230	2	1.06	0.94	39.9632	0.0476	0.0000	0.0000;
	138	2	1019.2	135.2	0	0	1	1.05999889	1.89438793	230	2	1.06	0.94	40.0363	0.0000	140.2925	0.0000;
	139	1	595	83.3	0	0	1	1.01796886	4.6954923	115	2	1.06	0.94	40.4753	0.0054	0.0000	0.0000;
	140	1	387.7	114.7	0	0	1	1.04566852	4.68815967	230	2	1.06	0.94	40.3626	0.0582	0.0000	0.0000;
	141	2	145	58	0	0	1	1.04641308	7.84888837	230	2	1.06	0.94	39.7664	0.0000	0.0000	0.0000;
	142	1	56.5	24.5	0	0	1	1.01841594	4.93516191	230	2	1.06	0.94	40.3285	0.4722	0.0000	0.0000;
	143	2	89.5	35.5	0	0	1	1.04487952	11.8478004	230	2	1.06	0.94	38.9392	-0.0000	0.0000	0.0000;
	144	1	0	0	0	0	1	1.05142094	10.2876912	230	2	1.06	0.94	39.0025	0.2350	0.0000	0.0000;
	145	1	24	14	0	0	1	1.00934494	7.21773596	230	2	1.06	0.94	40.0610	0.7550	0.0000	0.0000;
	146	2	0	0	0	0	1	1.05667418	11.4904382	230	2	1.06	0.94	39.0593	0.1423	0.0000	0.0000;
	147	2	0	0	0	0	1	1.05999973	15.1558921	230	2	1.06	0.94	38.3113	-0.0000	603.9780	0.0000;
	148	1	63	25	0	0	1	1.05999993	7.95744753	230	2	1.06	0.94	38.7176	-0.6190	2290.7256	0.0000;
	149	2	0	0	0	0	1	1.05999886	12.8396066	230	2	1.06	0.94	38.7539	0.0000	143.2010	0.0000;
	150	1	0	0	0	0	1	1.00218617	14.9610702	230	2	1.06	0.94	39.0072	0.3661	0.0000	0.0000;
	151	1	0	0	0	0	1	1.02055868	12.7148663	230	2	1.06	0.94	39.2395	0.4485	0.0000	0.0000;
	152	2	17	9	0	0	1	1.05999995	15.7118011	230	2	1.06	0.94	38.3179	-1.6738	3145.4341	0.0000;
	153	2	0	0	0	0	1	1.04640845	16.015699	230	2	1.06	0.94	38.4514	-0.6783	0.0000	0.0000;
	154	1	70	5	0	34.5	1	0.977357337	3.87588962	115	2	1.06	0.94	42.4184	-1.5653	0.0000	0.0000;
	155	1	200	50	0	0	1	1.03869902	12.099535	230	2	1.06	0.94	39.3557	-0.0423	0.0000	0.0000;
	156	2	75	50	0	0	1	0.978160857	10.5569008	115	2	1.06	0.94	39.3505	-0.0000	0.0000	0.0000;
	157	1	123.5	-24.3	0	0	1	1.00391809	0.611367158	230	2	1.06	0.94	40.9882	0.2452	0.0000	0.0000;
	158	1	0	0	0	0	1	1.01674838	0.994255375	230	2	1.06	0.94	40.9184	0.1219	0.0000	0.0000;
	159	1	33	16.5	0	0	1	1.00607177	2.75614956	230	2	1.06	0.94	40.7015	0.2286	0.0000	0.0000;
	160	1	0	0	0	0	1	1.01378105	0.245727079	230	2	1.06	0.94	40.9056	0.0607	0.0000	0.0000;
	161	1	35	15	0	0	1	1.04509151	14.3215669	230	2	1.06	0.94	38.8253	-0.4969	0.0000	0.0000;
	162	1	85	24	0	0	1	1.03473633	21.9306888	230	2	1.06	0.94	38.4908	0.0822	0.0000	0.0000;
	163	1	0	0.4	0	0	1	1.05679507	9.97073958	230	2	1.06	0.94	39.7968	-0.1172	0.0000	0.0000;
	164	1	0	0	0	-212	1	1.01215281	14.8295653	230	2	1.06	0.94	39.2216	0.0701	0.0000	0.0000;
	165	1	0	0	0	0	1	1.04702356	28.2647287	230	2	1.06	0.94	37.8510	0.0530	0.0000	0.0000;
	166	1	0	0	0	-103	1	1.0439613	31.4373494	230	2	1.06	0.94	37.7778	0.0332	0.0000	0.0000;
	167	1	299.9	95.7	0	0	1	0.985447921	2.32685865	230	2	1.06	0.94	40.9252	0.7044	0.0000	0.0000;
	168	1	0	0	0	0	1	1.01404398	4.34405138	230	2	1.06	0.94	40.5446	0.4138	0.0000	0.0000;
	169	1	0	0	0	0	1	1.0006788	2.62459102	230	2	1.06	0.94	40.8602	0.5395	0.0000	0.0000;
	170	2	481.8	205	0	0	1	0.944857797	8.81107244	115	2	1.06	0.94	39.4679	0.5347	0.0000	0.0000;
	171	2	763.6	291.1	0	0	1	0.993552905	-0.57152977	115	2	1.06	0.94	40.8859	0.4739	0.0000	0.0000;
	172	1	26.5	0	0	0	1	1.02668785	1.64345419	115	2	1.06	0.94	41.5404	0.0194	0.0000	0.0000;
	173	1	163.5	43	0	53	1	0.989589883	-5.47342471	115	2	1.06	0.94	43.7877	0.4827	0.0000	0.0000;
	174	1	0	0	0	0	1	1.05999961	5.06390289	115	2	1.06	0.94	39.9628	-0.1217	392.9952	0.0000;
	175	1	176	83	0	0	1	0.978253561	0.215871149	115	2	1.06	0.94	41.0135	0.8756	0.0000	0.0000;
	176	2	5	4	0	0	1	1.05999981	9.79809417	115	2	1.06	0.94	37.1916	0.0000	841.5313	0.0000;
	177	2	28	12	0	0	1	1.01480768	6.5594956	115	2	1.06	0.94	38.9855	0.7763	0.0000	0.0000;
	178	1	427.4	173.6	0	0	1	0.943690392	0.524899049	115	2	1.06	0.94	41.9720	1.7075	0.0000	0.0000;
	179	1	74	29	0	45	1	0.973940327	-2.01439324	115	2	1.06	0.94	42.8721	0.7372	0.0000	0.0000;
	180	1	69.5	49.3	0	0	1	0.981678421	4.18300636	115	2	1.06	0.94	40.3772	1.0387	0.0000	0.0000;
	181	1	73.4	0	0	0	1	1.05172315	6.9016283	230	2	1.06	0.94	39.9104	0.0188	0.0000	0.0000;
	182	1	240.7	89	0	0	1	1.04890001	3.98879303	230	2	1.06	0.94	40.5005	0.0171	0.0000	0.0000;
	183	1	40	4	0	0	1	0.975778694	12.7081211	115	2	1.06	0.94	38.7515	-0.6004	0.0000	0.0000;
	184	1	136.8	16.6	0	0	1	1.02280319	2.77134258	230	2	1.06	0.94	40.7097	-0.0219	0.0000	0.0000;
	185	2	0	0	0	0	1	1.02617729	5.49246516	230	2	1.06	0.94	40.3200	-0.0000	0.0000	0.0000;
	186	2	59.8	24.3	0	0	1	1.05999954	10.3611503	230	2	1.06	0.94	39.6066	-0.0000	289.1775	0.0000;
	187	2	59.8	24.3	0	0	1	1.05989962	9.60479003	230	2	1.06	0.94	39.6765	0.0000	27.9050	0.0000;
	188	1	182.6	43.6	0	0	1	1.05223093	7.49279491	230	2	1.06	0.94	39.8651	0.0242	0.0000	0.0000;
	189	1	7	2	0	0	1	1.0400725	-4.76292883	66	3	1.06	0.94	42.0031	0.3706	0.0000	0.0000;
	190	2	0	0	0	-150	1	1.04883224	2.23738698	345	3	1.06	0.94	41.3659	-0.0000	0.0000	0.0000;
	191	2	489	53	0	0	1	1.05999994	26.9412976	230	3	1.06	0.94	38.9288	0.0000	2884.2134	0.0000;
	192	1	800	72	0	0	1	0.970872756	6.22494908	230	3	1.06	0.94	40.5835	0.7848	0.0000	0.0000;
	193	1	0	0	0	0	1	1.03540297	-6.3489198	66	3	1.06	0.94	42.4471	0.4792	0.0000	0.0000;
	194	1	0	0	0	0	1	1.05999991	1.84315558	345	3	1.06	0.94	41.5232	-0.4304	1798.3454	0.0000;
	195	1	0	0	0	0	1	1.05176895	0.459455102	345	3	1.06	0.94	41.6981	-0.1183	0.0000	0.0000;
	196	1	10	3	0	0	1	1.00795467	-2.81852605	115	3	1.06	0.94	42.5886	0.4491	0.0000	0.0000;
	197	1	43	14	0	0	1	1.02539103	-1.62544501	115	3	1.06	0.94	41.8035	0.2265	0.0000	0.0000;
	198	2	64	21	0	0	1	1.04960951	1.28259418	115	3	1.06	0.94	40.7833	0.0000	0.0000	0.0000;
	199	1	35	12	0	0	1	0.992037857	-3.77073285	115	3	1.06	0.94	43.2287	0.3118	0.0000	0.0000;
	200	1	27	12	0	0	1	0.995359684	-3.63472651	115	3	1.06	0.94	43.0222	-0.1267	0.0000	0.0000;
	201	1	41	14	0	0	1	1.01222265	-7.7459424	66	1	1.06	0.94	43.2457	0.8084	0.0000	0.0000;
	202	1	38	13	0	0	1	1.0225523	-3.36476036	66	3	1.06	0.94	42.1155	0.1103	0.0000	0.0000;
	203	1	42	14	0	0	1	1.03625273	-0.473341933	115	3	1.06	0.94	41.4067	0.0849	0.0000	0.0000;
	204	1	72	24	0	0	1	1.0053604	-8.18450661	66	3	1.06	0.94	44.1253	0.9736	0.0000	0.0000;
	205	1	0	-5	0	0	1	1.02263084	-7.42008183	66	3	1.06	0.94	43.4092	0.5708	0.0000	0.0000;
	206	1	12	2	0	0	1	1.03112367	-9.31522515	66	3	1.06	0.94	45.2643	-0.3684	0.0000	0.0000;
	207	1	-21	-14.2	0	0	1	1.04001614	-9.99973608	66	1	1.06	0.94	45.7459	-1.0673	0.0000	0.0000;
	208	1	7	2	0	0	1	1.03617355	-6.01232778	66	3	1.06	0.94	42.5240	0.4254	0.0000	0.0000;
	209	1	38	13	0	0	1	1.04279237	-4.24847126	66	3	1.06	0.94	41.6330	0.4228	0.0000	0.0000;
	210	1	0	0	0	0	1	1.01611382	-2.11014132	115	3	1.06	0.94	42.0900	0.1757	0.0000	0.0000;
	211	1	96	7	0	0	1	1.03205939	-1.51326006	115	3	1.06	0.94	41.8038	0.0540	0.0000	0.0000;
	212	1	0	0	0	0	1	1.04035184	-0.766609603	138	3	1.06	0.94	41.5844	-0.0783	0.0000	0.0000;
	213	2	0	0	0	0	1	1.05518263	9.97828947	16.5	3	1.06	0.94	40.2183	0.0000	0.0000	0.0000;
	214	1	22	16	0	0	1	1.03103891	4.54868578	138	3	1.06	0.94	40.7351	0.0656	0.0000	0.0000;
	215	1	47	26	0	0	1	1.01960128	1.97461056	138	3	1.06	0.94	41.0744	0.1477	0.0000	0.0000;
	216	1	176	105	0	0	1	1.00113412	-0.030030469	138	3	1.06	0.94	41.6671	0.2785	0.0000	0.0000;
	217	1	100	75	0	0	1	1.03116501	0.518314048	138	3	1.06	0.94	41.6344	-0.0375	0.0000	0.0000;
	218	1	131	96	0	0	1	1.01591098	0.154081346	138	3	1.06	0.94	41.6663	-0.0417	0.0000	0.0000;
	219	1	0	0	0	0	1	1.0553299	1.42750713	345	3	1.06	0.94	41.5667	-0.1336	0.0000	0.0000;
	220	2	285	100	0	0	1	1.02711645	1.34813341	138	3	1.06	0.94	41.6431	0.0000	0.0000	0.0000;
	221	2	171	70	0	0	1	1.0336814	0.262047914	138	3	1.06	0.94	41.6715	0.0000	0.0000	0.0000;
	222	2	328	188	0	0	1	1.01413378	0.0967865197	20	3	1.06	0.94	41.5761	0.0000	0.0000	0.0000;
	223	1	428	232	0	0	1	1.02964564	0.0309732654	138	3	1.06	0.94	41.7610	0.0555	0.0000	0.0000;
	224	1	173	99	0	0	1	1.02410155	0.524757317	230	3	1.06	0.94	41.7008	0.0905	0.0000	0.0000;
	225	1	410	40	0	0	1	0.978944899	6.3587359	230	3	1.06	0.94	40.4040	0.6912	0.0000	0.0000;
	226	1	0	0	0	0	1	1.034894	0.728780532	230	3	1.06	0.94	41.5860	-0.0710	0.0000	0.0000;
	227	2	538	369	0	0	1	1.0138443	-3.74893794	27	3	1.06	0.94	41.6853	0.0007	0.0000	0.0000;
	228	1	223	148	0	0	1	1.0351534	2.21623804	138	3	1.06	0.94	41.5155	0.0503	0.0000	0.0000;
	229	1	96	46	0	0	1	1.04242497	3.25251484	138	3	1.06	0.94	41.2018	0.0034	0.0000	0.0000;
	230	2	0	0	0	0	1	1.03355214	9.74048883	20	3	1.06	0.94	40.9200	0.0000	0.0000	0.0000;
	231	1	159	107	0	-300	1	1.05059596	1.54529626	345	3	1.06	0.94	41.5425	-0.0588	0.0000	0.0000;
	232	1	448	143	0	0	1	1.04236116	-0.344482803	138	3	1.06	0.94	41.6192	-0.0413	0.0000	0.0000;
	233	2	404	212	0	0	1	1.02700264	-2.34840167	66	3	1.06	0.94	41.7214	0.0000	0.0000	0.0000;
	234	1	572	244	0	0	1	1.03087489	2.29931436	138	3	1.06	0.94	41.4314	0.0442	0.0000	0.0000;
	235	1	269	157	0	0	1	1.02948918	2.12842058	138	3	1.06	0.94	41.2991	0.0595	0.0000	0.0000;
	236	2	0	0	0	0	1	0.988820285	8.3653959	20	3	1.06	0.94	41.1511	0.0000	0.0000	0.0000;
	237	1	0	0	0	0	1	1.05271281	1.64976364	345	3	1.06	0.94	41.5147	-0.0821	0.0000	0.0000;
	238	2	255	149	0	-150	1	1.03058078	2.2006368	138	3	1.06	0.94	41.2559	0.0449	0.0000	0.0000;
	239	2	0	0	0	0	1	1.03491168	7.23053061	138	3	1.06	0.94	41.0243	0.0000	0.0000	0.0000;
	240	1	0	0	0	-140	1	1.0177832	2.72587278	230	3	1.06	0.94	41.3659	0.0001	0.0000	0.0000;
	241	2	0	0	0	0	1	1.02734592	6.69604045	20	3	1.06	0.94	41.2872	-0.0000	0.0000	0.0000;
	242	2	0	0	0	0	1	1.03385912	4.57556858	138	3	1.06	0.94	40.7298	0.0000	0.0000	0.0000;
	243	2	8	3	0	0	1	1.03738843	3.24670103	66	3	1.06	0.94	40.3850	-0.2813	0.0000	0.0000;
	244	1	0	0	0	0	1	1.02247092	2.29927283	66	3	1.06	0.94	40.8618	-0.0757	0.0000	0.0000;
	245	1	61	30	0	0	1	1.00784394	1.52685068	66	3	1.06	0.94	41.2340	0.1225	0.0000	0.0000;
	246	1	77	33	0	0	1	1.00001179	0.771065087	66	3	1.06	0.94	41.6334	0.2180	0.0000	0.0000;
	247	1	61	30	0	0	1	1.00864582	0.735397365	66	3	1.06	0.94	41.5764	-0.0738	0.0000	0.0000;
	248	1	29	14	0	45.6	1	1.0179285	-2.74036586	66	3	1.06	0.94	42.8561	-1.6146	0.0000	0.0000;
	249	1	29	14	0	0	1	1.0173065	-3.13058978	66	3	1.06	0.94	42.5933	-2.8613	0.0000	0.0000;
	250	1	-23	-17	0	0	1	1.05999988	-1.41737711	66	3	1.06	0.94	41.0902	-5.6576	1300.1030	0.0000;
	281	1	-33.1	-29.4	0	0	1	1.01913998	2.79954285	230	3	1.06	0.94	41.3579	-0.0070	0.0000	0.0000;
	319	1	115.8	-24	0	0	1	1.02460729	9.539802	230	1	1.06	0.94	39.3553	-0.1140	0.0000	0.0000;
	320	1	2.4	-12.6	0	0	1	1.02832204	5.96417902	115	1	1.06	0.94	41.3798	-0.5574	0.0000	0.0000;
	322	1	2.4	-3.9	0	0	1	1.02700176	-4.54924684	115	1	1.06	0.94	43.5524	-0.2719	0.0000	0.0000;
	323	1	-14.9	26.5	0	0	1	1.00850554	-1.31383468	230	1	1.06	0.94	42.7402	0.2943	0.0000	0.0000;
	324	1	24.7	-1.2	0	0	1	1.00081608	-9.33546835	115	1	1.06	0.94	45.7499	-0.0803	0.0000	0.0000;
	526	1	145.3	-34.9	0	0	1	1.02729614	-14.8971244	115	1	1.06	0.94	45.1173	1.0399	0.0000	0.0000;
	528	1	28.1	-20.5	0	0	1	1.00808951	-15.2534269	115	1	1.06	0.94	46.7639	-0.2804	0.0000	0.0000;
	531	1	14	2.5	0	0	1	0.998347777	-7.31981008	115	1	1.06	0.94	42.9828	0.3974	0.0000	0.0000;
	552	1	-11.1	-1.4	0	0	1	1.0382206	-1.94587951	115	1	1.06	0.94	40.9904	0.0144	0.0000	0.0000;
	562	1	50.5	17.4	0	0	1	1.01649003	-8.73415212	230	1	1.06	0.94	43.7221	0.2202	0.0000	0.0000;
	609	1	29.6	0.6	0	0	1	0.997255919	-6.97380485	115	1	1.06	0.94	43.7856	0.2927	0.0000	0.0000;
	664	1	-113.7	76.7	0	0	1	1.04240133	4.00778932	345	3	1.06	0.94	41.3467	-0.3377	0.0000	0.0000;
	1190	1	100.31	29.17	0	0	1	1.02914746	16.9023136	86	2	1.06	0.94	40.6490	0.0242	0.0000	0.0000;
	1200	1	-100	34.17	0	0	1	1.04360675	5.72361508	86	2	1.06	0.94	40.5499	0.0908	0.0000	0.0000;
	1201	1	0	0	0	0	1	1.02531506	-1.19395353	115	2	1.06	0.94	40.4609	-0.0284	0.0000	0.0000;
	2040	1	0	0	0	0	1	1.00370764	-3.29474775	115	3	1.06	0.94	42.6526	0.4802	0.0000	0.0000;
	7001	2	0	0	0	0	1	1.05999978	18.6575619	13.8	1	1.06	0.94	38.6567	0.0000	741.8412	0.0000;
	7002	2	0	0	0	0	1	1.05999987	20.1461802	13.8	1	1.06	0.94	37.9179	0.0000	1252.9920	0.0000;
	7003	2	0	0	0	0	1	1.04856469	21.8077927	13.8	1	1.06	0.94	38.8689	0.2558	0.0000	0.0000;
	7011	2	0	0	0	0	1	1.04807786	13.2185784	13.8	1	1.06	0.94	39.2155	0.3246	0.0000	0.0000;
	7012	2	0	0	0	0	1	1.05999975	19.6750457	13.8	1	1.06	0.94	39.1086	0.0000	644.0413	0.0000;
	7017	2	0	0	0	0	1	1.03474431	3.26195874	13.8	1	1.06	0.94	43.5148	0.0000	0.0000	0.0000;
	7023	2	0	0	0	0	1	1.05938496	13.7694825	13.8	1	1.06	0.94	37.9776	-0.5465	0.2628	0.0000;
	7024	2	0	0	0	0	1	1.03197011	20.0895701	13.8	1	1.06	0.94	38.7485	0.0000	0.0000	0.0000;
	7039	2	0	0	0	0	1	1.02623975	15.1409225	20	1	1.06	0.94	40.6477	0.0000	0.0000	0.0000;
	7044	2	0	0	0	0	1	0.998344568	1.22292853	13.8	1	1.06	0.94	41.5763	-0.0000	0.0000	0.0000;
	7049	3	0	0	0	0	1	1.0329614	0	13.8	1	1.06	0.94	41.4524	0.2364	0.0000	0.0000;
	7055	2	0	0	0	0	1	1.01070758	4.4440447	13.8	1	1.06	0.94	41.2876	0.0851	0.0000	0.0000;
	7057	2	0	0	0	0	1	1.00697307	8.79433932	13.8	1	1.06	0.94	39.3020	0.0000	0.0000	0.0000;
	7061	2	0	0	0	0	1	1.05999979	12.0847176	13.8	1	1.06	0.94	38.7919	0.0000	756.9982	0.0000;
	7062	2	0	0	0	0	1	1.03814183	16.2154526	13.8	1	1.06	0.94	38.9907	0.2036	0.0000	0.0000;
	7071	2	0	0	0	0	1	1.01325518	-3.01614807	13.8	1	1.06	0.94	43.7227	0.0000	0.0000	0.0000;
	7130	2	0	0	0	0	1	1.05999991	26.5280788	13.8	2	1.06	0.94	38.9312	0.0000	1881.8583	0.0000;
	7139	2	0	0	0	0	1	1.05998905	11.0631856	13.8	2	1.06	0.94	40.4747	0.0000	32.7727	0.0000;
	7166	2	0	0	0	0	1	1.05999929	35.3593661	13.8	2	1.06	0.94	37.7755	0.0000	225.6725	0.0000;
	9001	1	0	0	0	0	1	1.03005964	-0.291312467	115	9	1.06	0.94	41.3514	0.1311	0.0000	0.0000;
	9002	2	4.2	0	0	0	1	1.03718161	5.38068715	6.6	9	1.06	0.94	40.5628	0.2620	0.0000	0.0000;
	9003	1	2.71	0.94	0.14	2.4	1	1.00550715	-8.41430127	6.6	9	1.06	0.94	42.6226	0.2328	0.0000	0.0000;
	9004	1	0.86	0.28	0	0	1	0.999144575	-8.54598872	6.6	9	1.06	0.94	43.0396	0.3788	0.0000	0.0000;
	9005	1	0	0	0	0	1	1.03139661	-0.167237008	115	9	1.06	0.94	41.3065	0.1174	0.0000	0.0000;
	9006	1	0	0	0	0	1	1.02424044	-6.24117373	6.6	9	1.06	0.94	41.8633	0.1334	0.0000	0.0000;
	9007	1	0	0	0	0	1	1.01317714	-7.45372004	6.6	9	1.06	0.94	42.2858	0.1982	0.0000	0.0000;
	9012	1	0	0	0	0	1	1.03440162	3.60722279	6.6	9	1.06	0.94	41.0187	0.2376	0.0000	0.0000;
	9021	1	4.75	1.56	0	0	1	1.03164608	5.17735092	6.6	9	1.06	0.94	40.8623	0.3621	0.0000	0.0000;
	9022	1	1.53	0.53	0.08	0	1	1.00888969	2.80882481	0.6	9	1.06	0.94	41.4367	0.4020	0.0000	0.0000;
	9023	1	0	0	0	0	1	1.01820785	4.89109498	6.6	9	1.06	0.94	41.6670	0.6381	0.0000	0.0000;
	9024	1	1.35	0.47	0.07	0	1	1.01426123	3.01588167	0.6	9	1.06	0.94	41.1234	0.2989	0.0000	0.0000;
	9025	1	0.45	0.16	0.02	0	1	1.00869468	3.91570677	0.6	9	1.06	0.94	41.9358	0.6725	0.0000	0.0000;
	9026	1	0.45	0.16	0.02	0	1	1.00950584	3.99768289	0.6	9	1.06	0.94	41.9130	0.6691	0.0000	0.0000;
	9031	1	1.84	0.64	0.1	0	1	0.9553268	-13.5222728	0.6	9	1.06	0.94	43.9290	0.4173	0.0000	0.0000;
	9032	1	1.39	0.48	0.07	0	1	0.967267079	-12.3880407	0.6	9	1.06	0.94	43.6292	0.3652	0.0000	0.0000;
	9033	1	1.89	0.65	0.1	0	1	0.952488354	-13.8222538	0.6	9	1.06	0.94	44.0129	0.4462	0.0000	0.0000;
	9034	1	1.55	0.54	0.08	1.72	1	1.02018964	-9.77436387	0.6	9	1.06	0.94	42.7964	0.0046	0.0000	0.0000;
	9035	1	1.66	0.58	0.09	0	1	0.973422155	-11.7632652	0.6	9	1.06	0.94	43.4612	0.3137	0.0000	0.0000;
	9036	1	3.03	1	0	0	1	0.982477288	-11.2658762	2.3	9	1.06	0.94	43.0635	0.4032	0.0000	0.0000;
	9037	1	1.86	0.64	0.1	0	1	0.979843867	-11.196881	0.6	9	1.06	0.94	43.2782	0.2734	0.0000	0.0000;
	9038	1	2.58	0.89	0.14	0	1	0.962510099	-12.9458424	0.6	9	1.06	0.94	43.7024	0.3446	0.0000	0.0000;
	9041	1	1.01	0.35	0.05	0	1	0.98618334	-9.98347171	0.6	9	1.06	0.94	43.3860	0.4022	0.0000	0.0000;
	9042	1	0.81	0.28	0.04	0	1	0.973236022	-11.0966345	0.6	9	1.06	0.94	43.8572	0.5127	0.0000	0.0000;
	9043	1	1.6	0.52	0	0	1	0.987297328	-10.0781333	2.3	9	1.06	0.94	43.2830	0.4652	0.0000	0.0000;
	9044	1	0	0	0	0	1	1.00127732	-8.50747842	6.6	9	1.06	0.94	42.8964	0.3288	0.0000	0.0000;
	9051	2	35.81	0	0	0	1	1.02688369	3.50343651	13.8	9	1.06	0.94	41.0716	0.0000	0.0000	0.0000;
	9052	1	30	23	0	0	1	1.00214258	-5.84180092	13.8	9	1.06	0.94	41.7339	0.5180	0.0000	0.0000;
	9053	2	26.48	0	0	0	1	1.01699605	4.61008367	13.8	9	1.06	0.94	41.0021	0.0001	0.0000	0.0000;
	9054	2	0	0	0	0	1	1.04083208	4.34293823	13.8	9	1.06	0.94	41.2889	0.1068	0.0000	0.0000;
	9055	2	0	0	0	0	1	1.0326665	3.6601994	13.8	9	1.06	0.94	41.2915	0.1082	0.0000	0.0000;
	9071	1	1.02	0.35	0.05	0	1	0.997584824	-9.1655636	0.6	9	1.06	0.94	42.6792	0.2202	0.0000	0.0000;
	9072	1	1.02	0.35	0.05	0	1	1.00249294	-8.63487706	0.6	9	1.06	0.94	42.5580	0.2105	0.0000	0.0000;
	9121	1	3.8	1.25	0	0	1	1.01277413	1.70964096	6.6	9	1.06	0.94	41.7602	0.5090	0.0000	0.0000;
	9533	1	1.19	0.41	0.1	0	1	1.05830449	4.1119247	2.3	9	1.06	0.94	41.0015	-0.0750	1.8944	0.0000;
];

%% generator data
%	bus	Pg	Qg	Qmax	Qmin	Vg	mBase	status	Pmax	Pmin	Pc1	Pc2	Qc1min	Qc1max	Qc2min	Qc2max	ramp_agc	ramp_10	ramp_30	ramp_q	apf	mu_Pmax	mu_Pmin	mu_Qmax	mu_Qmin
mpc.gen = [
	8	0.000207021935	9.99963263	10	-10	1.03212478	100	1	100	0	0	0	0	0	0	0	0	0	0	0	0	0.0000	0.7821	0.4409	0.0000;
	10	0.000200528306	19.9993579	20	-20	1.0397375	100	1	100	0	0	0	0	0	0	0	0	0	0	0	0	0.0000	0.8072	0.2519	0.0000;
	20	11.1245801	19.9995355	20	-20	1.01975658	100	1	100	0	0	0	0	0	0	0	0	0	0	0	0	0.0000	0.0000	0.3488	0.0000;
	63	62.3566794	24.9998426	25	-25	1.03534266	100	1	100	0	0	0	0	0	0	0	0	0	0	0	0	0.0000	0.0000	1.0281	0.0000;
	76	99.9996664	34.9996537	35	12	1.00456387	100	1	100	0	0	0	0	0	0	0	0	0	0	0	0	0.4850	0.0000	0.4672	0.0000;
	84	403.619665	131.703155	240	-240	1.05999961	100	1	475	0	0	0	0	0	0	0	0	0	0	0	0	0.0000	0.0000	0.0000	0.0000;
	91	157.094182	13.5961873	96	-11	1.05645145	100	1	255	0	0	0	0	0	0	0	0	0	0	0	0	0.0000	0.0000	0.0000	0.0000;
	92	285.511265	14.8385872	153	-153	1.05999973	100	1	390	0	0	0	0	0	0	0	0	0	0	0	0	0.0000	0.0000	0.0000	0.0000;
	98	75.8573067	7.81866878	56	-30	1.03494334	100	1	168	0	0	0	0	0	0	0	0	0	0	0	0	0.0000	0.0000	0.0000	0.0000;
	108	141.018912	7.96620922	77	-24	1.01527296	100	1	217	0	0	0	0	0	0	0	0	0	0	0	0	0.0000	0.0000	0.0000	0.0000;
	119	1985.19928	1048.50136	1500	-500	1.05999989	100	1	2030	0	0	0	0	0	0	0	0	0	0	0	0	0.0000	0.0000	0.0000	0.0000;
	124	249.548404	96.7635785	120	-60	1.03328731	100	1	340	0	0	0	0	0	0	0	0	0	0	0	0	0.0000	0.0000	0.0000	0.0000;
	125	93.1562452	199.854974	200	-25	1.03153996	100	1	100	0	0	0	0	0	0	0	0	0	0	0	0	0.0000	0.0000	0.0136	0.0000;
	138	1.8416496	286.93481	350	-125	1.05999889	100	1	100	0	0	0	0	0	0	0	0	0	0	0	0	0.0000	0.0000	0.0000	0.0000;
	141	277.71828	47.5953436	75	-50	1.04641308	100	1	381	0	0	0	0	0	0	0	0	0	0	0	0	0.0000	0.0000	0.0000	0.0000;
	143	659.08242	89.9808677	300	-100	1.04487952	100	1	796	0	0	0	0	0	0	0	0	0	0	0	0	0.0000	0.0000	0.0000	0.0000;
	146	80.0492161	34.9988738	35	-15	1.05667418	100	1	184	0	0	0	0	0	0	0	0	0	0	0	0	0.0000	0.0000	0.1423	0.0000;
	147	198.677385	-41.7073226	100	-50	1.05999973	100	1	317	0	0	0	0	0	0	0	0	0	0	0	0	0.0000	0.0000	0.0000	0.0000;
	149	96.5823841	22.8126967	50	-25	1.05999886	100	1	203	0	0	0	0	0	0	0	0	0	0	0	0	0.0000	0.0000	0.0000	0.0000;
	152	340.713132	-49.9999052	175	-50	1.05999995	100	1	472	0	0	0	0	0	0	0	0	0	0	0	0	0.0000	0.0000	0.0000	1.6738;
	153	199.27494	-49.9997667	90	-50	1.04640845	100	1	316	0	0	0	0	0	0	0	0	0	0	0	0	0.0000	0.0000	0.0000	0.6783;
	156	0.000250891441	-2.77666498	15	-10	0.978160857	100	1	100	0	0	0	0	0	0	0	0	0	0	0	0	0.0000	0.6495	0.0000	0.0000;
	170	199.545757	89.9996967	90	-40	0.944857797	100	1	305	0	0	0	0	0	0	0	0	0	0	0	0	0.0000	0.0000	0.5347	0.0000;
	171	44.293955	149.999656	150	-50	0.993552905	100	1	100	0	0	0	0	0	0	0	0	0	0	0	0	0.0000	0.0000	0.4739	0.0000;
	176	195.984652	46.5931644	90	-45	1.05999981	100	1	328	0	0	0	0	0	0	0	0	0	0	0	0	0.0000	0.0000	0.0000	0.0000;
	177	79.7391559	34.9997918	35	-15	1.01480768	100	1	184	0	0	0	0	0	0	0	0	0	0	0	0	0.0000	0.0000	0.7763	0.0000;
	185	203.200289	-10.4068678	80	-50	1.02617729	100	1	300	0	0	0	0	0	0	0	0	0	0	0	0	0.0000	0.0000	0.0000	0.0000;