function mpc = case1354pegase
%CASE1354PEGASE

%% MATPOWER Case Format : Version 2
mpc.version = '2';

%%-----  Power Flow Data  -----%%
%% system MVA base
mpc.baseMVA = 100;

%% bus data
%	bus_i	type	Pd	Qd	Gs	Bs	area	Vm	Va	baseKV	zone	Vmax	Vmin	lam_P	lam_Q	mu_Vmax	mu_Vmin
mpc.bus = [
	3	1	151	48.8	0	4.69	0	1.07518543	-8.39138157	220	5	1.1	0.9	1.0232	0.0045	0.0000	0.0000;
	4	1	171.41	23.4	0	2.1	0	1.06218343	-5.59589158	220	5	1.1	0.9	1.0155	0.0030	0.0000	0.0000;
	10	1	134	24.7	0	12.44	0	1.06448172	-17.4553	220	5	1.1	0.9	1.0435	-0.0079	0.0000	0.0000;
	21	1	161.2	39.3	0	30.71	0	1.05995644	-16.0756769	220	5	1.1	0.9	1.0400	-0.0020	0.0000	0.0000;
	22	1	0	-0	0	0.85	0	1.07821159	-11.1011913	220	5	1.1	0.9	1.0206	0.0037	0.0000	0.0000;
	26	1	167.3	54.8	0	110.54	0	1.07076892	-1.22391472	380	5	1.1	0.9	1.0015	0.0002	0.0000	0.0000;
	29	1	152.9	49.4	0	27.65	0	1.04995835	-3.0063972	380	5	1.1	0.9	1.0076	0.0007	0.0000	0.0000;
	44	1	-0	0	0	7.27	0	1.07134506	-15.4794187	220	5	1.1	0.9	1.0327	-0.0082	0.0000	0.0000;
	53	1	48.65	16.1	0	7.14	0	1.09042643	-2.01095586	220	5	1.1	0.9	1.0011	0.0001	0.0000	0.0000;
	58	1	0	0	0	2.31	0	1.04515815	-1.17541299	380	5	1.1	0.9	1.0000	-0.0003	0.0000	0.0000;
	59	1	119.2	20.7	0	3.31	0	1.08401308	-14.6407632	220	5	1.1	0.9	1.0375	-0.0046	0.0000	0.0000;
	90	1	363.25	115.39	0	3.95	0	1.0820971	-11.0271673	220	5	1.1	0.9	1.0266	0.0027	0.0000	0.0000;
	96	1	-8.4	28.66	0	3.49	0	1.09578546	-1.98769384	220	5	1.1	0.9	1.0058	0.0013	0.0000	0.0000;
	113	1	-0	-0	0	6.532711	0	1.06618738	-4.0853404	380	5	1.1	0.9	1.0098	0.0011	0.0000	0.0000;
	115	1	0	-0	0	4.21	0	1.07004351	-12.6057361	220	5	1.1	0.9	1.0254	0.0020	0.0000	0.0000;
	118	1	704.53	-35.33	0	13.102834	0	1.0742205	-4.12219762	380	5	1.1	0.9	1.0070	-0.0002	0.0000	0.0000;
	124	2	0	0	0	0	0	1.07560977	2.13987799	220	5	1.1	0.9	0.9975	-0.0000	0.0000	0.0000;
	128	1	23.73	12.7	0	0.52	0	1.05041004	-12.6894733	220	5	1.1	0.9	1.0355	0.0068	0.0000	0.0000;
	145	1	38.34	5.6	0	7.64	0	1.09099381	-4.22164687	220	5	1.1	0.9	1.0025	-0.0000	0.0000	0.0000;
	148	1	32.34	12	0	6.1	0	1.07304732	-4.3948507	220	5	1.1	0.9	1.0072	0.0012	0.0000	0.0000;
	150	2	0	0	0	0	0	1.08400641	-3.14809206	220	5	1.1	0.9	1.0000	-0.0000	0.0000	0.0000;
	163	1	147.76	32.73	0	8.34	0	1.07922113	-8.55731878	220	5	1.1	0.9	1.0163	0.0044	0.0000	0.0000;
	171	1	100.8	13.2	0	5.24	0	1.08936427	-9.62357336	220	5	1.1	0.9	1.0160	0.0012	0.0000	0.0000;
	174	1	370.5	-17	0	9.91	0	1.09115765	-16.358394	220	5	1.1	0.9	1.0420	-0.0222	0.0000	0.0000;
	184	1	-0	-0	0	2.42	0	1.0642808	-10.1531189	220	5	1.1	0.9	1.0210	0.0031	0.0000	0.0000;
	188	1	36.84	13.9	0	3.3	0	1.05730039	-9.72303984	220	5	1.1	0.9	1.0220	0.0050	0.0000	0.0000;
	195	1	73.14	21.55	0	8.52	0	1.08525232	-3.29258093	220	5	1.1	0.9	1.0014	0.0001	0.0000	0.0000;
	196	1	0	-0	0	12.48	0	1.09931862	-20.4554332	220	5	1.1	0.9	1.0276	-0.0893	0.0000	0.0000;
	198	1	39.74	11.8	0	1.44	0	1.04628609	-13.1031038	220	5	1.1	0.9	1.0383	0.0082	0.0000	0.0000;
	207	1	321.98	84.4	0	1.34	0	1.04886896	-11.8262144	220	5	1.1	0.9	1.0327	0.0063	0.0000	0.0000;
	216	1	155.6	54.7	0	2.21	0	1.08763111	-15.6666258	220	5	1.1	0.9	1.0410	0.0004	0.0000	0.0000;
	217	1	105.2	0.1	0	7.36	0	1.04421459	-6.21494762	220	5	1.1	0.9	1.0151	0.0033	0.0000	0.0000;
	218	1	69.83	15.12	0	2.23	0	1.08943466	-7.92290153	220	5	1.1	0.9	1.0145	0.0023	0.0000	0.0000;
	221	2	0	0	0	0	0	1.04083141	-1.20884997	380	5	1.1	0.9	1.0001	-0.0000	0.0000	0.0000;
	225	1	0	0	0	1.15	0	1.0671742	-12.983397	220	5	1.1	0.9	1.0278	0.0025	0.0000	0.0000;
	280	1	119.6	29.6	0	5.34	0	1.08079255	-5.52537109	220	5	1.1	0.9	1.0066	0.0004	0.0000	0.0000;
	283	1	27.33	11.9	0	1.17	0	1.05824138	-10.6194793	220	5	1.1	0.9	1.0253	0.0044	0.0000	0.0000;
	292	1	13.82	1.4	0	0.7	0	1.09663175	-7.73965319	220	5	1.1	0.9	1.0140	0.0015	0.0000	0.0000;
	305	1	103	12	0	0.63	0	1.08329159	-19.0579341	220	5	1.1	0.9	1.0489	0.0014	0.0000	0.0000;
	306	1	-0	0	0	4.76	0	1.04673876	-14.1500338	220	5	1.1	0.9	1.0286	-0.0024	0.0000	0.0000;
	314	1	163.1	46.3	0	10.6	0	1.03304681	-14.2270949	220	5	1.1	0.9	1.0400	0.0136	0.0000	0.0000;
	333	1	524.5	43	0	6.85	0	1.03465431	-26.9441762	220	5	1.1	0.9	1.1072	0.0135	0.0000	0.0000;
	338	2	0	0	0	0	0	1.09917697	-3.06168591	220	5	1.1	0.9	1.0000	-0.0000	0.0000	0.0000;
	346	1	197.5	48.3	0	0.71	0	1.08472716	-13.459067	220	5	1.1	0.9	1.0349	0.0017	0.0000	0.0000;
	350	1	110.4	26.2	0	5.62	0	1.06870822	-16.5432444	220	5	1.1	0.9	1.0404	-0.0079	0.0000	0.0000;
	352	2	0	0	0	0	0	1.02170566	1.79362966	380	5	1.1	0.9	1.0000	-0.0000	0.0000	0.0000;
	367	1	65.17	-51.5	0	4.85	0	1.09517984	-17.847008	220	5	1.1	0.9	1.0264	-0.0668	0.0000	0.0000;
	401	1	56.5	36.29	0	3.08	0	1.09462529	-5.27488118	220	5	1.1	0.9	1.0006	0.0002	0.0000	0.0000;
	408	1	129.1	7.4	0	0.04	0	1.0673034	-10.0958793	220	5	1.1	0.9	1.0217	0.0020	0.0000	0.0000;
	410	1	170.89	50.38	0	6.44	0	1.08436669	-14.443732	220	5	1.1	0.9	1.0388	0.0006	0.0000	0.0000;
	413	2	0	0	0	0	0	1.07868461	1.36999444	220	5	1.1	0.9	1.0000	-0.0000	0.0000	0.0000;
	416	1	70.68	13.5	0	6.96	0	1.09096324	-5.62793825	220	5	1.1	0.9	1.0046	0.0011	0.0000	0.0000;
	426	1	123.1	6.5	0	3.25	0	1.08070062	-9.54727213	220	5	1.1	0.9	1.0305	0.0009	0.0000	0.0000;
	432	1	-0	-0	0	68.517663	0	1.06357784	-0.056153743	380	5	1.1	0.9	0.9988	-0.0001	0.0000	0.0000;
	444	1	0	-0	0	2.45	0	1.05830704	-10.6550313	220	5	1.1	0.9	1.0248	0.0044	0.0000	0.0000;
	449	1	0	0	0	29.42	0	1.02444373	-2.58882033	380	5	1.1	0.9	1.0045	-0.0001	0.0000	0.0000;
	453	2	0	0	0	0	0	1.06627474	-1.09015467	380	5	1.1	0.9	1.0000	-0.0000	0.0000	0.0000;
	455	1	274.32	5.66	0	13.24	0	1.06808592	-17.0515047	220	5	1.1	0.9	1.0517	0.0023	0.0000	0.0000;
	490	1	20.52	4	0	2.77	0	1.05706691	-16.9031536	220	5	1.1	0.9	1.0361	-0.0004	0.0000	0.0000;
	500	1	144.4	35.5	0	7.66	0	1.08105422	-6.46319009	220	5	1.1	0.9	1.0096	0.0019	0.0000	0.0000;
	502	1	-0	0	0	1.96	0	1.08194226	-2.29074766	220	5	1.1	0.9	1.0003	0.0000	0.0000	0.0000;
	506	1	-0	0	0	0.4	0	1.07706427	-0.774498202	380	5	1.1	0.9	1.0002	0.0000	0.0000	0.0000;
	513	1	57.46	17.1	0	1.61	0	1.07702444	-3.13972917	220	5	1.1	0.9	1.0043	0.0009	0.0000	0.0000;
	516	2	0	0	0	0	0	1.08445585	-17.1168388	220	5	1.1	0.9	1.0000	0.0000	0.0000	0.0000;
	520	1	118.5	20.4	0	2.57	0	1.09558406	-8.79611525	220	5	1.1	0.9	1.0145	0.0001	0.0000	0.0000;
	549	1	0	-0	0	5.15	0	1.09996306	-3.8885842	220	5	1.1	0.9	1.0038	-0.0088	0.0000	0.0000;
	554	1	0	-0	0	1.97	0	1.06793655	-13.2287228	220	5	1.1	0.9	1.0310	0.0052	0.0000	0.0000;
	556	1	16.52	9	0	1.17	0	1.0577722	-16.7007993	220	5	1.1	0.9	1.0349	-0.0004	0.0000	0.0000;
	561	1	0	-0	0	0.32	0	1.09019101	-2.75570117	220	5	1.1	0.9	1.0050	0.0001	0.0000	0.0000;
	564	2	0	0	0	0	0	1.09409252	-28.8748864	220	5	1.1	0.9	1.0922	-0.0003	0.0000	0.0000;
	575	1	0	-0	0	0.67	0	1.06702522	-10.1650477	220	5	1.1	0.9	1.0219	0.0025	0.0000	0.0000;
	583	2	0	0	0	0	0	1.0912878	-4.51540766	220	5	1.1	0.9	1.0000	0.0003	0.0000	0.0000;
	594	1	67.57	17	0	5.75	0	1.06043294	-0.947009721	220	5	1.1	0.9	1.0130	0.0026	0.0000	0.0000;
	601	1	140.6	42.6	0	5.71	0	1.09157575	-6.69497761	220	5	1.1	0.9	1.0097	0.0019	0.0000	0.0000;
	604	1	33.24	4.4	0	24.54	0	1.02466916	-8.07412603	380	5	1.1	0.9	1.0246	-0.0001	0.0000	0.0000;
	608	1	150.9	10.4	0	4.77	0	1.09616187	-15.4103754	220	5	1.1	0.9	1.0381	-0.0011	0.0000	0.0000;
	609	1	-0	-0	0	5.67	0	1.06924186	-8.18068385	220	5	1.1	0.9	1.0188	0.0053	0.0000	0.0000;
	615	2	0	0	0	0	0	1.09555067	-4.08456426	220	5	1.1	0.9	0.9939	-0.0000	0.0000	0.0000;
	616	2	0	0	0	0	0	1.1	-5.09880616	220	5	1.1	0.9	1.0005	-0.0000	14.4996	0.0000;
	619	1	72.88	14.4	0	2.96	0	1.09471656	-16.716827	220	5	1.1	0.9	1.0389	0.0025	0.0000	0.0000;
	639	2	0	0	0	0	0	1.09623079	-19.6131068	220	5	1.1	0.9	1.0652	0.0000	0.0000	0.0000;
	641	1	45.32	18.5	0	0.74	0	1.09628223	-1.33246705	220	5	1.1	0.9	1.0049	0.0007	0.0000	0.0000;
	658	1	258.4	66.7	0	5.87	0	1.05675526	-7.65913436	220	5	1.1	0.9	1.0139	0.0073	0.0000	0.0000;
	661	1	-0	-0	0	0.6	0	1.03505874	-1.61879658	380	5	1.1	0.9	1.0023	0.0000	0.0000	0.0000;
	666	1	-5.61	-2.79	0	150.93	0	1.06024316	-3.20911006	380	5	1.1	0.9	1.0032	-0.0000	0.0000	0.0000;
	678	1	232.1	89.8	0	0.09	0	1.08730857	-2.49513714	220	5	1.1	0.9	1.0087	0.0033	0.0000	0.0000;
	682	2	0	0	0	0	0	1.08649794	-3.11646567	220	5	1.1	0.9	1.0000	-0.0005	0.0000	0.0000;
	687	1	-0	0	0	5.6	0	1.07195154	-4.89703563	220	5	1.1	0.9	1.0031	0.0006	0.0000	0.0000;
	707	1	83.99	21.2	0	5.36	0	1.08327131	-8.72406695	220	5	1.1	0.9	1.0139	0.0033	0.0000	0.0000;
	718	1	135.11	41	0	5.31	0	1.08560444	-8.83488031	220	5	1.1	0.9	1.0165	0.0022	0.0000	0.0000;
	720	1	-0	-0	0	23.554121	0	1.02680193	-17.5525201	380	5	1.1	0.9	1.0619	0.0005	0.0000	0.0000;
	726	1	400.3	189.9	0	0.53	0	1.06273322	-5.73837551	220	5	1.1	0.9	1.0056	0.0018	0.0000	0.0000;
	742	1	0	-0	0	2.83	0	1.07212355	-4.89854384	220	5	1.1	0.9	1.0031	0.0005	0.0000	0.0000;
	747	1	69.58	16	0	3.03	0	1.09843156	-20.5134267	220	5	1.1	0.9	1.0283	-0.0891	0.0000	0.0000;
	749	2	0	0	0	0	0	1.09240974	-9.28855683	220	5	1.1	0.9	1.0157	-0.0000	0.0000	0.0000;
	750	1	-0	-0	0	18.63	0	1.08934519	-15.5337178	220	5	1.1	0.9	1.0403	-0.0000	0.0000	0.0000;
	757	2	0	0	0	0	0	1.05477136	-5.35232293	380	5	1.1	0.9	1.0135	0.0008	0.0000	0.0000;
	766	1	-0	0	0	7.85	0	1.08970941	-12.8140441	220	5	1.1	0.9	1.0381	-0.0007	0.0000	0.0000;
	769	1	152.57	40	0	6.12	0	1.04007973	-9.0863115	220	5	1.1	0.9	1.0274	0.0068	0.0000	0.0000;
	772	1	343.9	141.9	0	5.55	0	1.07510746	-7.51201183	220	5	1.1	0.9	1.0149	0.0037	0.0000	0.0000;
	776	2	0	0	0	0	0	1.09014494	-5.37448582	220	5	1.1	0.9	1.0037	0.0000	0.0000	0.0000;
	778	2	0	0	0	0	0	1.09950365	-3.05659429	220	5	1.1	0.9	1.0000	-0.0000	0.0000	0.0000;
	789	1	-0	-0	0	6.63	0	1.09187621	-5.80023249	220	5	1.1	0.9	1.0042	0.0009	0.0000	0.0000;
	795	2	0	0	0	0	0	1.1	-0.850236309	220	5	1.1	0.9	1.0001	-0.0000	2.2410	0.0000;
	800	1	50.56	18	0	0.11	0	1.05782468	-10.6519728	220	5	1.1	0.9	1.0257	0.0045	0.0000	0.0000;
	803	2	0	0	0	0	0	1.1	-6.38251162	220	5	1.1	0.9	1.0000	-0.0000	1.7460	0.0000;
	804	1	-0	-0	0	7.26	0	1.1	-4.16446791	220	5	1.1	0.9	1.0015	-0.0017	24.0662	0.0000;
	805	1	124.5	29.6	0	15.4	0	1.09880599	-6.5376303	220	5	1.1	0.9	1.0077	0.0011	0.0000	0.0000;
	809	1	0	-0	0	58.088687	0	1.03617297	-1.50901477	380	5	1.1	0.9	1.0013	0.0002	0.0000	0.0000;
	819	1	0	-0	0	0.22	0	1.0879737	-2.80797914	220	5	1.1	0.9	0.9991	-0.0001	0.0000	0.0000;
	823	2	0	0	0	0	0	1.0218156	0.595281854	380	5	1.1	0.9	1.0000	-0.0000	0.0000	0.0000;
	839	1	-0	-0	0	8.17514	0	1.03435295	-2.21483517	380	5	1.1	0.9	1.0035	0.0004	0.0000	0.0000;
	851	2	0	0	0	0	0	1.09984058	-1.48588738	220	5	1.1	0.9	1.0007	0.0001	0.0000	0.0000;
	858	2	0	0	0	0	0	1.03682874	-0.956160156	380	5	1.1	0.9	1.0000	-0.0000	0.0000	0.0000;
	870	1	110	3.4	0	11.95	0	1.08901867	-15.6776602	220	5	1.1	0.9	1.0411	-0.0000	0.0000	0.0000;
	871	1	108.89	-21.76	0	3.72	0	1.08806672	-3.43423442	220	5	1.1	0.9	1.0064	0.0001	0.0000	0.0000;
	883	1	192.5	78.3	0	6.65	0	1.06507651	-6.59306994	220	5	1.1	0.9	1.0180	0.0061	0.0000	0.0000;
	891	2	0	0	0	0	0	1.08559147	-4.09192559	380	5	1.1	0.9	1.0111	0.0000	0.0000	0.0000;
	892	1	-0	-0	0	9.1	0	1.07968261	-18.6148749	220	5	1.1	0.9	1.0539	0.0084	0.0000	0.0000;
	900	1	0	0	0	0.15	0	1.0794092	-6.29798029	220	5	1.1	0.9	1.0199	0.0012	0.0000	0.0000;
	903	1	82.69	20.1	0	1.36	0	1.09839552	-20.5373771	220	5	1.1	0.9	1.0282	-0.0891	0.0000	0.0000;
	905	1	631.71	-54.16	0	7.534129	0	1.07010719	-5.18461833	380	5	1.1	0.9	1.0064	-0.0002	0.0000	0.0000;
	907	1	-0	-0	0	0.05	0	1.09233965	-3.68795413	220	5	1.1	0.9	1.0001	-0.0000	0.0000	0.0000;
	908	1	125.9	-0.5	0	0.21	0	1.09255771	-1.50921623	220	5	1.1	0.9	0.9998	-0.0000	0.0000	0.0000;
	920	1	34.44	8.5	0	1.11	0	1.08935427	-12.9722369	220	5	1.1	0.9	1.0307	0.0006	0.0000	0.0000;
	923	1	62.07	14.7	0	4.84	0	1.05632599	-16.9878893	220	5	1.1	0.9	1.0374	-0.0002	0.0000	0.0000;
	933	1	-0	0	0	22.75	0	1.07663134	-8.9143816	220	5	1.1	0.9	1.0247	0.0041	0.0000	0.0000;
	935	1	-0	0	0	9.46	0	1.09673211	-15.9991544	220	5	1.1	0.9	1.0337	0.0025	0.0000	0.0000;
	953	1	108.7	-12.15	0	37.11	0	1.05713697	-4.70263449	380	5	1.1	0.9	1.0133	0.0007	0.0000	0.0000;
	954	1	66.27	13.6	0	0.67	0	1.09421635	-11.9131847	220	5	1.1	0.9	1.0306	0.0016	0.0000	0.0000;
	960	1	-0	-0	0	108.728602	0	1.07706293	-0.774493618	380	5	1.1	0.9	1.0002	0.0000	0.0000	0.0000;
	964	1	88.5	16.5	0	146.44	0	1.05845045	-4.30322726	380	5	1.1	0.9	1.0104	0.0010	0.0000	0.0000;
	972	2	0	0	0	0	0	1.06550323	0.991576198	380	5	1.3	0.7	0.9941	-0.0000	0.0000	0.0000;
	980	1	14.71	4.6	0	7.88	0	1.09508545	-16.6122224	220	5	1.1	0.9	1.0378	0.0026	0.0000	0.0000;
	1001	2	0	0	0	0	0	1.08369079	-17.2804654	220	5	1.1	0.9	1.0455	0.0070	0.0000	0.0000;
	1002	2	0	0	0	0	0	1.08818551	-12.297268	220	5	1.1	0.9	1.0285	0.0004	0.0000	0.0000;
	1005	1	0	0	0	0.81	0	1.09560407	-5.03662812	220	5	1.1	0.9	0.9988	-0.0000	0.0000	0.0000;
	1015	1	44.55	0	0	4.78	0	1.09852282	-5.08855122	220	5	1.1	0.9	1.0020	-0.0002	0.0000	0.0000;
	1026	1	201.4	53	0	9.67	0	1.07132475	-11.894697	220	5	1.1	0.9	1.0331	0.0053	0.0000	0.0000;
	1027	1	-5.91	-2.33	0	30.393595	0	1.01160382	-11.8817976	380	5	1.1	0.9	1.0326	-0.0121	0.0000	0.0000;
	1033	1	26.33	5.3	0	4.31	0	1.0891722	-15.6046324	220	5	1.1	0.9	1.0412	-0.0002	0.0000	0.0000;
	1035	1	382.5	57.9	0	8.16	0	1.08390847	-18.9490807	220	5	1.1	0.9	1.0481	0.0013	0.0000	0.0000;
	1039	1	34.64	-0	0	0.91	0	1.08562113	-6.43086704	220	5	1.1	0.9	1.0088	0.0012	0.0000	0.0000;
	1040	1	31.94	8.8	0	3.79	0	1.09107241	-4.16906401	220	5	1.1	0.9	1.0021	0.0000	0.0000	0.0000;
	1043	2	0	0	0	0	0	1.07051513	-1.00435281	380	5	1.1	0.9	0.9999	-0.0000	0.0000	0.0000;
	1051	1	-0	0	0	3.79	0	1.0961318	-5.04154287	220	5	1.1	0.9	0.9991	-0.0000	0.0000	0.0000;
	1077	1	-0	0	0	0.1	0	1.05824296	-10.6195005	220	5	1.1	0.9	1.0253	0.0044	0.0000	0.0000;
	1078	1	-0	-0	0	4.74	0	1.09869832	-4.78765116	220	5	1.1	0.9	1.0000	-0.0000	0.0000	0.0000;
	1081	1	277.86	58.95	0	182.880644	0	1.08090595	-3.0892986	380	5	1.1	0.9	1.0060	-0.0014	0.0000	0.0000;
	1083	2	0	0	0	0	0	1.1	-4.92018096	220	5	1.1	0.9	1.0000	-0.0000	1.8734	0.0000;
	1090	1	56.06	18.7	0	4.24	0	1.02729523	-16.9266647	220	5	1.1	0.9	1.0400	0.0009	0.0000	0.0000;
	1093	2	0	0	0	0	0	1.07327717	-0.809009579	380	5	1.1	0.9	1.0001	-0.0000	0.0000	0.0000;
	1096	1	0	-0	0	0.16	0	1.08780608	-2.81876202	220	5	1.1	0.9	0.9992	-0.0000	0.0000	0.0000;
	1100	2	0	0	0	0	0	1.08915531	-3.32276603	220	5	1.1	0.9	1.0000	-0.0000	0.0000	0.0000;
	1101	1	-0	-0	0	2.05	0	1.08202206	-7.23955155	220	5	1.1	0.9	1.0133	0.0026	0.0000	0.0000;
	1102	2	0	0	0	0	0	1.07865304	1.36431243	220	5	1.1	0.9	1.0001	0.0000	0.0000	0.0000;
	1105	1	29.83	7.3	0	6.49	0	1.09925551	-20.4612795	220	5	1.1	0.9	1.0277	-0.0893	0.0000	0.0000;
	1111	1	0	0	0	1.1	0	1.06057644	-0.948920278	220	5	1.1	0.9	1.0130	0.0025	0.0000	0.0000;
	1129	1	190.47	55.03	0	6.7	0	1.02065154	-17.739026	220	5	1.1	0.9	1.0452	0.0024	0.0000	0.0000;
	1136	1	16.22	2	0	0.71	0	1.07795015	-11.152494	220	5	1.1	0.9	1.0209	0.0038	0.0000	0.0000;
	1137	1	-0	-0	0	0.05	0	1.0962716	-15.9608497	220	5	1.1	0.9	1.0345	0.0026	0.0000	0.0000;
	1146	1	32.84	-0	0	1.41	0	1.0615197	-7.21382655	220	5	1.1	0.9	1.0173	0.0057	0.0000	0.0000;
	1151	1	-0	-0	0	18.82	0	1.08770825	-12.825664	220	5	1.1	0.9	1.0306	0.0005	0.0000	0.0000;
	1153	1	12.41	3.9	0	2.23	0	1.05199935	-5.00619666	220	5	1.1	0.9	1.0044	0.0037	0.0000	0.0000;
	1156	1	65.67	24	0	9.95	0	1.05981848	-16.484814	220	5	1.1	0.9	1.0344	-0.0010	0.0000	0.0000;
	1159	1	112.4	13	0	3.99	0	1.06693641	-20.3219424	220	5	1.1	0.9	1.0660	0.0101	0.0000	0.0000;
	1172	1	-0	-0	0	2.3	0	1.09870462	-19.7244792	220	5	1.1	0.9	1.0267	-0.0843	0.0000	0.0000;
	1179	1	86.6	23.4	0	0.39	0	1.04235084	-6.4133422	220	5	1.1	0.9	1.0167	0.0037	0.0000	0.0000;
	1183	1	199.4	-19.9	0	6.68	0	1.08638593	-17.8143766	220	5	1.1	0.9	1.0497	0.0058	0.0000	0.0000;
	1187	1	67.57	21.2	0	5.71	0	1.07053177	-6.4390568	220	5	1.1	0.9	1.0105	0.0037	0.0000	0.0000;
	1188	1	30.93	6.6	0	9.09	0	1.09582032	-5.844272	220	5	1.1	0.9	1.0038	-0.0012	0.0000	0.0000;
	1194	1	129.6	13.3	0	13.98	0	1.07257718	-4.15047266	380	5	1.1	0.9	1.0094	0.0002	0.0000	0.0000;
	1198	1	0	0	0	30.637696	0	1.043017	-3.2624276	380	5	1.1	0.9	1.0097	0.0014	0.0000	0.0000;
	1201	1	114.1	23.5	0	1.08	0	1.09664372	-12.4516419	220	5	1.1	0.9	1.0254	-0.0085	0.0000	0.0000;
	1216	1	0	0	0	4.93	0	1.05454771	-8.86404754	220	5	1.1	0.9	1.0231	0.0036	0.0000	0.0000;
	1233	1	0	-0	0	1.72	0	1.05973333	-16.5078298	220	5	1.1	0.9	1.0346	-0.0010	0.0000	0.0000;
	1234	1	71.78	17.9	0	1.96	0	1.06409826	-9.60927287	220	5	1.1	0.9	1.0260	0.0033	0.0000	0.0000;
	1237	2	0	0	0	0	0	1.07668069	0.969699273	380	5	1.3	0.7	1.0000	-0.0000	0.0000	0.0000;
	1248	1	0	0	0	1.17	0	1.07938392	-8.55886084	220	5	1.1	0.9	1.0163	0.0043	0.0000	0.0000;
	1249	1	348.93	26.47	0	9.36	0	1.06857182	-5.31844324	380	5	1.1	0.9	1.0125	0.0000	0.0000	0.0000;
	1251	2	0	0	0	0	0	1.07307938	-0.86800244	380	5	1.1	0.9	1.0000	-0.0000	0.0000	0.0000;
	1262	1	-0	0	0	10.73	0	1.05983624	-16.0804667	220	5	1.1	0.9	1.0321	-0.0007	0.0000	0.0000;
	1265	1	173	-21.3	0	5.93	0	1.0879251	-32.9030704	220	5	1.1	0.9	1.1248	0.0025	0.0000	0.0000;
	1275	1	52.46	2.9	0	0.35	0	1.07514999	-12.2815392	220	5	1.1	0.9	1.0388	0.0019	0.0000	0.0000;
	1295	2	0	0	0	0	0	1.09927175	-3.08696789	220	5	1.1	0.9	1.0002	0.0000	0.0000	0.0000;
	1301	1	479	99.2	0	10.68	0	1.07361072	-14.9304365	220	5	1.1	0.9	1.0415	0.0019	0.0000	0.0000;
	1305	1	-0	-0	0	4.34	0	1.0914675	-8.41932625	220	5	1.1	0.9	1.0137	0.0001	0.0000	0.0000;
	1311	1	37.94	15.2	0	35.31	0	1.0512777	-9.35461071	380	5	1.1	0.9	1.0281	0.0003	0.0000	0.0000;
	1326	1	0	0	0	0.98	0	1.07983373	-18.6158695	220	5	1.1	0.9	1.0539	0.0084	0.0000	0.0000;
	1334	1	0	0	0	0.59	0	1.06611664	-9.36488189	220	5	1.1	0.9	1.0239	0.0030	0.0000	0.0000;
	1341	2	0	0	0	0	0	1.08138366	-7.23540172	220	5	1.1	0.9	1.0133	0.0027	0.0000	0.0000;
	1343	1	-0	-0	0	58.3	0	1.04793744	-3.6964312	380	5	1.1	0.9	1.0103	0.0010	0.0000	0.0000;
	1354	2	0	0	0	0	0	1.08173369	-2.46775464	220	5	1.1	0.9	1.0007	0.0000	0.0000	0.0000;
	1355	1	-3.29	-1.32	0	190.704588	0	1.07901411	-2.91552554	380	5	1.1	0.9	1.0052	-0.0008	0.0000	0.0000;
	1364	1	40.85	14.5	0	0.59	0	1.0751107	-8.96803376	220	5	1.1	0.9	1.0196	0.0050	0.0000	0.0000;
	1380	1	145.2	21.4	0	1.09	0	1.08131182	-14.8300148	220	5	1.1	0.9	1.0417	-0.0055	0.0000	0.0000;
	1394	1	30.93	7.6	0	4.69	0	1.09914782	-20.4499598	220	5	1.1	0.9	1.0276	-0.0892	0.0000	0.0000;
	1397	1	0	-0	0	2.14	0	1.09687752	-5.02287154	220	5	1.1	0.9	0.9986	-0.0003	0.0000	0.0000;
	1398	1	196.7	44.2	0	0.1	0	1.06901592	-10.5927719	220	5	1.1	0.9	1.0332	0.0059	0.0000	0.0000;
	1401	1	11.91	2.9	0	5.27	0	1.07839651	-8.83454465	220	5	1.1	0.9	1.0187	0.0035	0.0000	0.0000;
	1414	1	144.7	20.3	0	6.35	0	1.05060305	-19.1873237	220	5	1.1	0.9	1.0587	-0.0037	0.0000	0.0000;
	1415	1	0	-0	0	0.3	0	1.0798925	-4.04216008	220	5	1.1	0.9	1.0019	0.0010	0.0000	0.0000;
	1422	2	0	0	0	0	0	1.09997717	-6.27351417	220	5	1.1	0.9	1.0000	-0.0000	0.0000	0.0000;
	1435	1	-0	0	0	3.85	0	1.05992286	-16.6912407	220	5	1.1	0.9	1.0483	-0.0015	0.0000	0.0000;
	1436	2	0	0	0	0	0	1.09653316	-5.00827008	220	5	1.1	0.9	0.9985	-0.0002	0.0000	0.0000;
	1448	1	0	0	0	9.49	0	1.0797282	-9.17740171	220	5	1.1	0.9	1.0125	0.0006	0.0000	0.0000;
	1459	1	-0	-0	0	3.38	0	1.09303735	-12.1801097	220	5	1.1	0.9	1.0313	0.0017	0.0000	0.0000;
	1462	1	-0	0	0	0.42	0	1.1	-6.27402435	220	5	1.1	0.9	1.0000	-0.0000	0.5042	0.0000;
	1465	1	-11.03	-5.11	0	29.706803	0	1.00881197	-10.1949254	380	5	1.1	0.9	1.0308	-0.0018	0.0000	0.0000;
	1478	2	0	0	0	0	0	1.08989134	-4.844341	220	5	1.1	0.9	1.0000	-0.0000	0.0000	0.0000;
	1483	1	0	0	0	4.86	0	1.0776432	-12.6358864	220	5	1.1	0.9	1.0213	0.0021	0.0000	0.0000;
	1486	1	79.59	18.8	0	6.78	0	1.05634083	-17.2648599	220	5	1.1	0.9	1.0389	-0.0007	0.0000	0.0000;
	1494	1	-1.85	-1.63	0	31.424588	0	1.06984746	-3.09888075	380	5	1.1	0.9	1.0011	-0.0002	0.0000	0.0000;
	1502	1	-0	0	0	37.116157	0	1.04827657	-11.999445	380	5	1.1	0.9	1.0394	0.0056	0.0000	0.0000;
	1504	1	0	-0	0	1.84	0	1.05157392	-11.8091386	220	5	1.1	0.9	1.0357	0.0062	0.0000	0.0000;
	1526	1	-10.86	-5.93	0	12.54	0	1.06426302	-10.1525088	220	5	1.1	0.9	1.0210	0.0031	0.0000	0.0000;
	1538	1	36.34	15.2	0	0.3	0	1.06074237	-9.00137119	220	5	1.1	0.9	1.0196	0.0031	0.0000	0.0000;
	1539	1	73.58	3.24	0	52.35	0	1.09803577	-5.78143348	220	5	1.1	0.9	1.0019	-0.0014	0.0000	0.0000;
	1541	1	125.4	45.8	0	0	0	1.1	-2.75561077	220	5	1.1	0.9	1.0007	-0.0019	9.0956	0.0000;
	1545	1	42.55	8.2	0	2.06	0	1.06799276	-16.6877206	220	5	1.1	0.9	1.0384	-0.0082	0.0000	0.0000;
	1547	1	-0	-0	0	1.02	0	1.08111444	-6.46373363	220	5	1.1	0.9	1.0096	0.0018	0.0000	0.0000;
	1551	1	-0	-0	0	7.99	0	1.06657179	-14.601711	220	5	1.1	0.9	1.0319	-0.0027	0.0000	0.0000;
	1552	1	20.42	8.1	0	35.15	0	1.07353489	-4.78989597	380	5	1.1	0.9	1.0113	0.0004	0.0000	0.0000;
	1554	1	0	-0	0	4.96	0	1.0506489	-12.6706475	220	5	1.1	0.9	1.0354	0.0068	0.0000	0.0000;
	1556	1	-0	-0	0	0.95	0	1.09673544	-4.09363433	220	5	1.1	0.9	0.9939	-0.0003	0.0000	0.0000;
	1562	1	77.39	24.1	0	2.67	0	1.09047364	-17.2668251	220	5	1.1	0.9	1.0402	0.0035	0.0000	0.0000;
	1566	1	156.9	-4	0	2.48	0	1.06211975	-17.9329914	220	5	1.1	0.9	1.0452	-0.0073	0.0000	0.0000;
	1568	1	69.08	21.5	0	1.65	0	1.09479369	-16.6271246	220	5	1.1	0.9	1.0381	0.0027	0.0000	0.0000;
	1578	1	0	-0	0	1.38	0	1.06299743	-10.9995635	220	5	1.1	0.9	1.0261	0.0031	0.0000	0.0000;
	1584	1	0	-0	0	3.24	0	1.09487138	-5.26146774	220	5	1.1	0.9	1.0004	0.0002	0.0000	0.0000;
	1592	1	28.33	44.8	0	0.51	0	1.06076438	-3.64465769	220	5	1.1	0.9	0.9999	0.0018	0.0000	0.0000;
	1595	1	71.77	13.57	0	3.84	0	1.04405686	-20.5026182	220	5	1.1	0.9	1.0656	-0.0028	0.0000	0.0000;
	1604	2	0	0	0	0	0	1.08217107	-2.24665064	220	5	1.1	0.9	1.0000	-0.0000	0.0000	0.0000;
	1605	1	-0	0	0	0.05	0	1.09973852	-10.0442856	220	5	1.1	0.9	1.0144	0.0008	0.0000	0.0000;
	1607	1	73.78	-0	0	2.69	0	1.06016019	-3.30384612	380	5	1.1	0.9	1.0035	-0.0001	0.0000	0.0000;
	1609	1	0	0	0	6.55	0	1.09972587	-11.1385946	220	5	1.1	0.9	1.0255	0.0006	0.0000	0.0000;
	1625	1	73.18	22.3	0	8.77	0	1.08958024	-12.8123798	220	5	1.1	0.9	1.0381	-0.0006	0.0000	0.0000;
	1629	1	41.95	8.5	0	1.05	0	1.066534	-9.2703978	220	5	1.1	0.9	1.0169	0.0032	0.0000	0.0000;
	1642	2	0	0	0	0	0	1.03513078	-1.33192235	380	5	1.1	0.9	1.0012	0.0002	0.0000	0.0000;
	1643	1	95.71	25.9	0	11.38	0	1.09052554	-17.2975365	220	5	1.1	0.9	1.0402	0.0034	0.0000	0.0000;
	1644	1	449.56	245.72	0	94.55	0	1.05931387	-0.832574899	380	5	1.1	0.9	0.9975	0.0005	0.0000	0.0000;
	1662	1	3.67	-1.86	0	3.89	0	1.09006157	-13.0022808	220	5	1.1	0.9	1.0308	0.0002	0.0000	0.0000;
	1672	1	-28.13	-0.83	0	0.1	0	1.09693289	-4.08132818	220	5	1.1	0.9	0.9938	-0.0004	0.0000	0.0000;
	1680	2	0	0	0	0	0	1.02185519	0.754703856	380	5	1.1	0.9	1.0000	-0.0000	0.0000	0.0000;
	1692	1	83.19	25.8	0	0.33	0	1.06825339	-9.54224258	220	5	1.1	0.9	1.0191	0.0026	0.0000	0.0000;
	1704	1	62.16	8	0	2.99	0	1.07880565	-8.9107394	220	5	1.1	0.9	1.0123	0.0005	0.0000	0.0000;
	1708	2	0	0	0	0	0	1.07337589	-2.97395913	380	5	1.1	0.9	1.0061	0.0000	0.0000	0.0000;
	1709	1	-15.38	-4.94	0	33.241519	0	1.04587216	-7.88400293	380	5	1.1	0.9	1.0224	0.0021	0.0000	0.0000;
	1711	1	25.13	-61.6	0	3.68	0	1.09808905	-19.6228138	220	5	1.1	0.9	1.0652	-0.0003	0.0000	0.0000;
	1721	2	0	0	0	0	0	1.08397402	-3.15070107	220	5	1.1	0.9	1.0000	-0.0000	0.0000	0.0000;
	1730	1	-17.18	-4.35	0	44.419365	0	1.02456415	-7.44082531	380	5	1.1	0.9	1.0219	0.0022	0.0000	0.0000;
	1742	1	0	0	0	6.68	0	1.05569589	-16.5847966	220	5	1.1	0.9	1.0538	0.0067	0.0000	0.0000;
	1746	1	-0	0	0	1.86	0	1.09681347	-15.650015	220	5	1.1	0.9	1.0330	0.0026	0.0000	0.0000;
	1750	1	58.46	6.6	0	10.13	0	1.07045791	-12.7029426	220	5	1.1	0.9	1.0347	0.0000	0.0000	0.0000;
	1754	2	0	0	0	0	0	1.05658969	-5.05643038	380	5	1.1	0.9	1.0125	-0.0005	0.0000	0.0000;
	1758	1	0	-0	0	121.29	0	1.01889887	-1.66340902	380	5	1.1	0.9	1.0060	-0.0002	0.0000	0.0000;
	1763	1	-0	-0	0	0.28	0	1.05302425	-15.864688	380	5	1.1	0.9	1.0494	0.0051	0.0000	0.0000;
	1767	1	333.5	-1.4	0	8.37	0	1.06563067	-28.8205187	220	5	1.1	0.9	1.1134	0.0094	0.0000	0.0000;
	1768	1	73.98	22.5	0	1.15	0	1.07523659	-8.99516642	220	5	1.1	0.9	1.0192	0.0052	0.0000	0.0000;
	1775	1	-0	0	0	1.64	0	1.09674629	-7.66508985	220	5	1.1	0.9	1.0078	0.0001	0.0000	0.0000;
	1794	2	0	0	0	0	0	1.02007202	1.05208205	380	5	1.1	0.9	1.0000	-0.0000	0.0000	0.0000;
	1798	1	-0.63	-0.83	0	22.810288	0	1.0088597	-6.83248649	380	5	1.1	0.9	1.0202	0.0072	0.0000	0.0000;
	1803	1	-0	-0	0	0.05	0	1.06011728	-16.0825014	220	5	1.1	0.9	1.0321	-0.0007	0.0000	0.0000;
	1808	2	0	0	0	0	0	1.08557719	-3.00720483	220	5	1.1	0.9	1.0000	-0.0000	0.0000	0.0000;
	1813	1	88.92	19.79	0	2.81	0	1.06606521	-5.00347003	220	5	1.1	0.9	1.0121	0.0025	0.0000	0.0000;
	1817	1	108.91	33.7	0	56.24	0	1.06020533	-4.22900365	380	5	1.1	0.9	1.0117	0.0005	0.0000	0.0000;
	1833	1	0	0	0	3.33	0	1.06105709	-15.2672183	220	5	1.1	0.9	1.0347	-0.0060	0.0000	0.0000;
	1838	1	0	-0	0	3.02	0	1.06190971	-15.1874438	220	5	1.1	0.9	1.0343	-0.0055	0.0000	0.0000;
	1844	1	-28.14	-0.76	0	0.1	0	1.09695054	-4.08080963	220	5	1.1	0.9	0.9938	-0.0004	0.0000	0.0000;
	1851	2	0	0	0	0	0	1.09654533	-5.00849542	220	5	1.1	0.9	0.9985	-0.0002	0.0000	0.0000;
	1852	2	0	0	0	0	0	1.09979393	-5.77102354	220	5	1.1	0.9	1.0007	0.0000	0.0000	0.0000;
	1857	1	0	0	0	1.53	0	1.09487133	-3.1228202	220	5	1.1	0.9	1.0000	0.0000	0.0000	0.0000;
	1860	1	88.8	-3.2	0	13.63	0	1.1	-9.15650034	220	5	1.1	0.9	1.0157	-0.0011	24.0167	0.0000;
	1866	1	209.2	23.5	0	6.44	0	1.06806568	-12.4400539	220	5	1.1	0.9	1.0306	0.0065	0.0000	0.0000;
	1868	1	11.71	3.8	0	2.96	0	1.09781437	-2.14326314	220	5	1.1	0.9	1.0062	0.0006	0.0000	0.0000;
	1876	1	-0	-0	0	6.273568	0	1.06627047	-4.08444968	380	5	1.1	0.9	1.0096	0.0011	0.0000	0.0000;
	1883	1	27.33	5	0	6.77	0	1.07175352	-9.32048982	220	5	1.1	0.9	1.0232	0.0028	0.0000	0.0000;
	1888	2	0	0	0	0	0	1.06905218	-3.75910948	220	5	1.1	0.9	1.0000	0.0000	0.0000	0.0000;
	1895	1	20.82	-0	0	0.14	0	1.07184058	1.84514748	220	5	1.1	0.9	0.9977	-0.0000	0.0000	0.0000;
	1896	1	-0	-0	0	1.18	0	1.05073902	-2.7267259	380	5	1.1	0.9	1.0049	-0.0038	0.0000	0.0000;
	1910	1	-0	0	0	2.68	0	1.09955986	-3.05737778	220	5	1.1	0.9	1.0000	-0.0000	0.0000	0.0000;
	1914	2	0	0	0	0	0	1.09734857	-6.20745248	220	5	1.1	0.9	1.0000	-0.0000	0.0000	0.0000;
	1917	1	197.5	-31	0	17.34	0	1.09811365	-16.606241	220	5	1.1	0.9	1.0364	0.0019	0.0000	0.0000;
	1923	1	192.11	45.5	0	68.04	0	1.01078814	-7.58354014	380	5	1.1	0.9	1.0215	-0.0028	0.0000	0.0000;
	1940	1	0	0	0	1.19	0	1.07452894	-8.09686296	220	5	1.1	0.9	1.0106	0.0011	0.0000	0.0000;
	1959	2	0	0	0	0	0	1.09555067	-4.08456425	220	5	1.1	0.9	0.9939	-0.0000	0.0000	0.0000;
	1965	1	248.7	8.1	0	12.46	0	1.088458	-32.497695	220	5	1.1	0.9	1.1199	0.0032	0.0000	0.0000;
	1973	1	210.1	66.2	0	59.36	0	1.09922584	-20.4365198	220	5	1.1	0.9	1.0275	-0.0892	0.0000	0.0000;
	1979	1	0	0	0	0.14	0	1.08369223	-17.2804702	220	5	1.1	0.9	1.0455	0.0070	0.0000	0.0000;
	1980	1	177.3	36.4	0	0.7	0	1.08499429	-13.5725021	220	5	1.1	0.9	1.0343	0.0014	0.0000	0.0000;
	1998	1	25.73	7.3	0	2.82	0	1.06750005	-13.5957125	220	5	1.1	0.9	1.0413	-0.0000	0.0000	0.0000;
	2012	1	41.45	4.9	0	18.43	0	1.07220141	-12.2180384	220	5	1.1	0.9	1.0307	0.0001	0.0000	0.0000;
	2019	1	72.08	21.3	0	7.19	0	1.08850422	-13.2577232	220	5	1.1	0.9	1.0323	0.0006	0.0000	0.0000;
	2020	1	0	0	0	9.98	0	1.09861054	-15.657386	220	5	1.1	0.9	1.0330	0.0024	0.0000	0.0000;
	2021	1	3.9	1	0	3.81	0	1.09770041	-16.4528336	220	5	1.1	0.9	1.0356	0.0022	0.0000	0.0000;
	2035	2	0	0	0	0	0	1.03844779	-0.996910311	380	5	1.1	0.9	1.0000	-0.0000	0.0000	0.0000;
	2042	1	14.02	6.5	0	0.09	0	1.06056764	-5.79060057	220	5	1.1	0.9	1.0084	0.0021	0.0000	0.0000;
	2043	1	3.2	1.7	0	0.05	0	1.09996414	-6.27439083	220	5	1.1	0.9	1.0000	0.0000	0.0000	0.0000;
	2044	1	0	0	0	0.14	0	1.08823701	-4.77813316	220	5	1.1	0.9	1.0083	0.0011	0.0000	0.0000;
	2050	2	0	0	0	0	0	1.06896014	0.83166012	380	5	1.1	0.9	0.9954	-0.0000	0.0000	0.0000;
	2056	1	-0	0	0	7.338808	0	1.07132729	-2.40271873	380	5	1.1	0.9	1.0043	0.0001	0.0000	0.0000;
	2057	1	120.2	20.5	0	19.94	0	1.0951304	-20.4694536	220	5	1.1	0.9	1.0712	-0.0005	0.0000	0.0000;
	2072	1	101.2	2.1	0	38.43	0	1.08139366	-3.17519272	380	5	1.1	0.9	1.0052	0.0000	0.0000	0.0000;
	2078	1	77.19	18.6	0	2.22	0	1.07885069	-6.95946038	220	5	1.1	0.9	1.0153	0.0020	0.0000	0.0000;
	2079	1	0	-0	0	13.94	0	1.08896167	-6.44022563	220	5	1.1	0.9	1.0086	0.0010	0.0000	0.0000;
	2083	1	121.4	20.2	0	16.61	0	1.07815119	-11.1007676	220	5	1.1	0.9	1.0206	0.0037	0.0000	0.0000;
	2085	2	0	0	0	0	0	1.03531896	-1.55752211	380	5	1.1	0.9	1.0019	-0.0000	0.0000	0.0000;
	2088	1	-0	0	0	6.02	0	1.09536763	-6.94301953	220	5	1.1	0.9	1.0101	0.0014	0.0000	0.0000;
	2089	1	199.86	56.93	0	46.83	0	1.09131124	-17.1900277	220	5	1.1	0.9	1.0393	0.0033	0.0000	0.0000;
	2093	1	-5.64	-2.84	0	34.582195	0	1.05080968	-4.17641459	380	5	1.1	0.9	1.0062	0.0012	0.0000	0.0000;
	2101	1	-0	-0	0	38.32	0	1.07410317	-1.93691294	380	5	1.1	0.9	1.0027	-0.0002	0.0000	0.0000;
	2128	1	79.09	18.7	0	10.8	0	1.05658948	-16.9496465	220	5	1.1	0.9	1.0368	-0.0003	0.0000	0.0000;
	2129	1	0	0	0	56.686515	0	1.06620979	-1.49814239	380	5	1.1	0.9	1.0015	-0.0002	0.0000	0.0000;
	2132	1	107.3	14.2	0	20.23	0	1.08312283	-8.47161832	220	5	1.1	0.9	1.0165	0.0028	0.0000	0.0000;
	2142	1	0	-0	0	7.63	0	1.09609877	-4.33515188	220	5	1.1	0.9	1.0024	-0.0009	0.0000	0.0000;
	2155	1	63.67	20.2	0	6.13	0	1.06067452	-5.78114703	220	5	1.1	0.9	1.0084	0.0021	0.0000	0.0000;
	2161	1	35.66	-9.39	0	7.89	0	1.08885914	-10.6585814	220	5	1.1	0.9	1.0236	0.0015	0.0000	0.0000;
	2166	1	20.92	7.7	0	1.21	0	1.08965275	-4.93426787	220	5	1.1	0.9	1.0001	-0.0006	0.0000	0.0000;
	2174	1	0	0	0	61.795782	0	1.05371242	-5.94999776	380	5	1.1	0.9	1.0132	0.0012	0.0000	0.0000;
	2177	2	0	0	0	0	0	1.1	-8.91133642	220	5	1.1	0.9	1.0060	-0.0017	32.4113	0.0000;
	2183	1	0	0	0	32.849821	0	1.02682942	-10.0092736	380	5	1.1	0.9	1.0284	-0.0008	0.0000	0.0000;
	2189	1	-0	0	0	0.18	0	1.09922572	-3.06761769	220	5	1.1	0.9	1.0000	-0.0000	0.0000	0.0000;
	2197	2	0	0	0	0	0	1.07329583	-1.78942158	380	5	1.1	0.9	1.0016	-0.0001	0.0000	0.0000;
	2208	1	74.98	26.9	0	2.96	0	1.0814582	-4.93340695	220	5	1.1	0.9	1.0144	0.0011	0.0000	0.0000;
	2229	1	0	-0	0	2.91	0	1.1	-4.87794429	220	5	1.1	0.9	0.9999	-0.0067	55.9311	0.0000;
	2230	1	0	-0	0	1.71	0	1.06120256	-15.2684487	220	5	1.1	0.9	1.0347	-0.0061	0.0000	0.0000;
	2231	1	0	0	0	0.45	0	1.08376917	-3.15175312	220	5	1.1	0.9	1.0000	-0.0000	0.0000	0.0000;
	2242	1	-0	-0	0	2.76	0	1.0632123	-9.23106518	220	5	1.1	0.9	1.0178	0.0035	0.0000	0.0000;
	2252	1	100.7	-4.2	0	1.57	0	1.09235603	-29.6776247	220	5	1.1	0.9	1.0973	-0.0005	0.0000	0.0000;