function mpc = case2869pegase
%CASE2869PEGASE

%% MATPOWER Case Format : Version 2
mpc.version = '2';

%%-----  Power Flow Data  -----%%
%% system MVA base
mpc.baseMVA = 100;

%% bus data
%	bus_i	type	Pd	Qd	Gs	Bs	area	Vm	Va	baseKV	zone	Vmax	Vmin	lam_P	lam_Q	mu_Vmax	mu_Vmin
mpc.bus = [
	3	1	151	48.8	0	4.69	0	1.07558669	-8.28931369	220	5	1.1	0.9	1.0232	0.0044	0.0000	0.0000;
	4	1	171.41	23.4	0	2.1	0	1.0586378	-5.68928159	220	5	1.1	0.9	1.0146	0.0030	0.0000	0.0000;
	10	1	134	24.7	0	12.44	0	1.06420378	-17.5241563	220	5	1.1	0.9	1.0423	-0.0086	0.0000	0.0000;
	15	1	59.67	26.7	0	12.84	0	1.06507906	-13.7586754	220	4	1.1	0.9	1.0325	-0.0001	0.0000	0.0000;
	21	1	161.2	39.3	0	30.71	0	1.06027509	-16.0449552	220	5	1.1	0.9	1.0378	-0.0024	0.0000	0.0000;
	22	1	0	-0	0	0.85	0	1.07902431	-10.9695207	220	5	1.1	0.9	1.0190	0.0034	0.0000	0.0000;
	26	1	167.3	54.8	0	110.54	0	1.07023114	-1.24258836	380	5	1.1	0.9	1.0014	0.0002	0.0000	0.0000;
	29	1	152.9	49.4	0	27.65	0	1.0501265	-2.98097005	380	5	1.1	0.9	1.0076	0.0007	0.0000	0.0000;
	32	2	0	0	0	0	0	1.03498271	-6.39888101	220	4	1.1	0.9	1.0125	-0.0018	0.0000	0.0000;
	33	2	0	0	0	0	0	1.05645125	-5.27942613	220	4	1.1	0.9	0.9991	0.0003	0.0000	0.0000;
	38	1	42.75	12.8	0	13.3	0	1.02492119	-3.67523067	220	8	1.1	0.9	1.0002	0.0030	0.0000	0.0000;
	39	2	0	0	0	0	0	1.02204115	-5.31560582	150	10	1.1	0.9	1.0000	-0.0000	0.0000	0.0000;
	42	1	20.82	7.9	0	26.89	0	1.08582712	-6.84172462	380	4	1.1	0.9	1.0135	-0.0017	0.0000	0.0000;
	44	1	-0	0	0	7.27	0	1.07108663	-15.5461507	220	5	1.1	0.9	1.0315	-0.0089	0.0000	0.0000;
	51	2	0	0	0	0	0	1.0688178	-5.32056484	220	4	1.1	0.9	1.0029	0.0001	0.0000	0.0000;
	52	1	127.6	31.8	0	20.51	0	1.06305613	-12.671806	150	8	1.1	0.9	1.0268	0.0053	0.0000	0.0000;
	53	1	48.65	16.1	0	7.14	0	1.09087557	-2.28870979	220	5	1.1	0.9	1.0011	0.0001	0.0000	0.0000;
	58	1	0	0	0	2.31	0	1.04515337	-1.15455059	380	5	1.1	0.9	1.0000	-0.0003	0.0000	0.0000;
	59	1	119.2	20.7	0	3.31	0	1.08368923	-11.9885388	220	5	1.1	0.9	1.0283	-0.0056	0.0000	0.0000;
	69	1	62.87	20.5	0	1.15	0	1.06287776	-13.7511538	150	8	1.1	0.9	1.0325	0.0050	0.0000	0.0000;
	71	1	126.3	42.4	0	55.24	0	1.07966053	-13.2985614	150	8	1.1	0.9	1.0291	-0.0006	0.0000	0.0000;
	72	1	6.91	-4.6	0	5.75	0	1.04612518	-6.47732947	220	4	1.1	0.9	1.0070	0.0017	0.0000	0.0000;
	75	1	38.74	6.1	0	1.17	0	1.07526168	-10.4267114	220	4	1.1	0.9	1.0180	-0.0008	0.0000	0.0000;
	76	1	22.13	10.7	0	14.21	0	1.02499723	-3.67128814	220	8	1.1	0.9	1.0002	0.0030	0.0000	0.0000;
	77	1	-0	-0	0	0.73	0	1.08182769	-7.08078542	220	4	1.1	0.9	1.0063	-0.0001	0.0000	0.0000;
	89	1	0	0	0.199111	4.530599	0	1.02595088	-5.70163112	380	2	1.1	0.9	1.0150	0.0039	0.0000	0.0000;
	90	1	363.25	115.39	0	3.95	0	1.07619128	-10.103575	220	5	1.1	0.9	1.0250	0.0050	0.0000	0.0000;
	91	1	-0	0	0	0.02	0	1.06659767	-11.5456905	150	8	1.1	0.9	1.0177	0.0047	0.0000	0.0000;
	96	1	-8.4	28.66	0	3.49	0	1.09590254	-1.95917599	220	5	1.1	0.9	1.0057	0.0013	0.0000	0.0000;
	113	1	-0	-0	0	6.532711	0	1.06554537	-4.12266839	380	5	1.1	0.9	1.0095	0.0011	0.0000	0.0000;
	115	1	0	-0	0	4.21	0	1.06847028	-12.7360286	220	5	1.1	0.9	1.0257	0.0049	0.0000	0.0000;
	118	1	704.53	-35.33	0	13.102834	0	1.07398221	-4.13156248	380	5	1.1	0.9	1.0070	-0.0002	0.0000	0.0000;
	124	2	0	0	0	0	0	1.07025039	2.31262115	220	5	1.1	0.9	0.9965	-0.0000	0.0000	0.0000;
	128	1	23.73	12.7	0	0.52	0	1.0519919	-12.9477188	220	5	1.1	0.9	1.0346	0.0069	0.0000	0.0000;
	130	1	-0	0	0.135375	47.750675	0	1.09049692	-10.604004	380	10	1.1	0.9	1.0243	-0.0013	0.0000	0.0000;
	132	1	0	-0	0	21.39	0	1.09110709	-7.32487534	380	1	1.1	0.9	1.0125	-0.0027	0.0000	0.0000;
	133	1	38.14	12.5	0	6.28	0	1.0677772	-11.4373658	150	8	1.1	0.9	1.0236	0.0049	0.0000	0.0000;
	138	1	-75.38	7.8	0	29.9	0	1.09517712	-7.96189212	380	10	1.1	0.9	1.0142	-0.0050	0.0000	0.0000;
	139	1	-764.34	66.91	0	33.47	0	1.04292861	-3.31340201	380	8	1.1	0.9	1.0079	-0.0102	0.0000	0.0000;
	140	1	0	0	0	4.14	0	1.04854836	-8.56963096	220	8	1.1	0.9	1.0247	0.0016	0.0000	0.0000;
	143	1	0	0	0	0	0	1.05570475	-12.5028882	150	8	1.1	0.9	1.0278	0.0039	0.0000	0.0000;
	145	1	38.34	5.6	0	7.64	0	1.09157582	-4.27673208	220	5	1.1	0.9	1.0024	-0.0000	0.0000	0.0000;
	148	1	32.34	12	0	6.1	0	1.0680927	-4.60875247	220	5	1.1	0.9	1.0072	0.0012	0.0000	0.0000;
	150	2	0	0	0	0	0	1.0810896	-3.34875923	220	5	1.1	0.9	1.0000	-0.0000	0.0000	0.0000;
	163	1	147.76	32.73	0	8.34	0	1.07960734	-8.46060936	220	5	1.1	0.9	1.0167	0.0041	0.0000	0.0000;
	164	1	0	-0	0	5.17	0	1.05503569	-17.6200025	150	8	1.1	0.9	1.0543	0.0087	0.0000	0.0000;
	171	1	100.8	13.2	0	5.24	0	1.06195751	-7.54217142	220	5	1.1	0.9	1.0065	0.0028	0.0000	0.0000;
	172	1	111.7	10.96	0	4.22	0	1.06248678	-5.94301631	220	4	1.1	0.9	1.0056	0.0002	0.0000	0.0000;
	174	1	370.5	-17	0	9.91	0	1.09085895	-16.3240268	220	5	1.1	0.9	1.0450	0.0016	0.0000	0.0000;
	177	1	94.9	36.2	0	16.46	0	0.998213119	-9.81514366	220	10	1.1	0.9	1.0220	0.0016	0.0000	0.0000;
	179	2	0	0	0	0	0	1.09230351	-5.42100965	380	4	1.1	0.9	1.0060	-0.0004	0.0000	0.0000;
	184	1	-0	-0	0	2.42	0	1.06540822	-10.6218243	220	5	1.1	0.9	1.0213	0.0035	0.0000	0.0000;
	188	1	36.84	13.9	0	3.3	0	1.05660622	-9.77458612	220	5	1.1	0.9	1.0217	0.0049	0.0000	0.0000;
	194	2	0	0	0	0	0	1.08275332	-2.83226366	150	8	1.1	0.9	1.0000	0.0000	0.0000	0.0000;
	195	1	73.14	21.55	0	8.52	0	1.08685751	-3.49588742	220	5	1.1	0.9	1.0014	0.0001	0.0000	0.0000;
	196	1	0	-0	0	12.48	0	1.09931862	-20.5008021	220	5	1.1	0.9	1.0251	-0.0939	0.0000	0.0000;
	198	1	39.74	11.8	0	1.44	0	1.04785456	-13.3466532	220	5	1.1	0.9	1.0374	0.0082	0.0000	0.0000;
	199	1	86.8	28.4	0	1.34	0	1.06212744	-12.3095446	150	8	1.1	0.9	1.0229	0.0058	0.0000	0.0000;
	201	2	0	0	0	0	0	1.08073499	-8.46095483	220	4	1.1	0.9	1.0079	-0.0005	0.0000	0.0000;
	205	1	46.15	18.2	0	1.29	0	1.05200959	-11.968976	150	8	1.1	0.9	1.0240	0.0042	0.0000	0.0000;
	207	1	321.98	84.4	0	1.34	0	1.04998768	-12.3219756	220	5	1.1	0.9	1.0333	0.0068	0.0000	0.0000;
	211	1	75.28	19.2	0	1.9	0	1.05364162	-12.3722077	110	8	1.1	0.9	1.0316	0.0017	0.0000	0.0000;
	216	1	155.6	54.7	0	2.21	0	1.0864072	-15.3999365	220	5	1.1	0.9	1.0369	0.0004	0.0000	0.0000;
	217	1	105.2	0.1	0	7.36	0	1.04337915	-6.82291926	220	5	1.1	0.9	1.0153	0.0032	0.0000	0.0000;
	218	1	69.83	15.12	0	2.23	0	1.08897494	-7.84656458	220	5	1.1	0.9	1.0144	0.0023	0.0000	0.0000;
	221	2	0	0	0	0	0	1.04083141	-1.18800815	380	5	1.1	0.9	1.0001	-0.0000	0.0000	0.0000;
	225	1	0	0	0	1.15	0	1.06560846	-13.1141344	220	5	1.1	0.9	1.0282	0.0055	0.0000	0.0000;
	228	1	-23.43	57.4	0	0	0	1.07661662	-8.34946761	150	2	1.1	0.9	1.0012	0.0017	0.0000	0.0000;
	230	1	152.07	22.52	0	7.87	0	1.05111492	-5.04655339	220	4	1.1	0.9	1.0086	0.0015	0.0000	0.0000;
	231	1	-0.13	-1	0	0	0	1.02179638	-6.89611077	110	8	1.1	0.9	1.0105	0.0073	0.0000	0.0000;
	236	1	45.85	7	0	1.05	0	1.07106174	-12.4003893	220	4	1.1	0.9	1.0272	-0.0020	0.0000	0.0000;
	243	1	0	-0.01	0	13.49	0	1.06090716	-1.62511832	150	8	1.1	0.9	1.0029	0.0004	0.0000	0.0000;
	244	1	-0	-0	0	0.68	0	1.0687985	-9.14332328	150	8	1.1	0.9	1.0105	0.0037	0.0000	0.0000;
	249	1	-0	-0	0	26.3	0	1.03460228	-6.40604043	220	4	1.1	0.9	1.0125	-0.0016	0.0000	0.0000;
	257	1	113.9	24.5	0	6.72	0	1.06611831	-8.79174204	220	4	1.1	0.9	1.0167	-0.0013	0.0000	0.0000;
	261	1	-0	0	0	1.29	0	1.08665108	-10.7691316	380	10	1.1	0.9	1.0270	-0.0012	0.0000	0.0000;
	264	1	38.74	9	0	0.57	0	1.06390202	-5.2367116	220	4	1.1	0.9	1.0023	0.0001	0.0000	0.0000;
	266	1	0	-0	0	140.96	0	1.08841307	-4.02693563	380	4	1.1	0.9	1.0022	-0.0033	0.0000	0.0000;
	267	1	103.8	2.7	0	3.33	0	1.07367303	-9.2464232	220	4	1.1	0.9	1.0200	0.0005	0.0000	0.0000;
	268	1	-0.13	-1	0	0	0	1.0412062	-3.43997476	220	8	1.1	0.9	1.0005	0.0020	0.0000	0.0000;
	271	1	96.7	26.8	0	0	0	1.07143216	-9.91354614	150	2	1.1	0.9	1.0130	0.0044	0.0000	0.0000;
	275	1	102.1	25.3	0	1.11	0	1.06196182	-11.9508105	150	8	1.1	0.9	1.0287	0.0062	0.0000	0.0000;
	280	1	119.6	29.6	0	5.34	0	1.07979734	-5.60673463	220	5	1.1	0.9	1.0066	0.0004	0.0000	0.0000;
	281	1	-0	-0	0	18.07	0	1.07814085	-4.12056724	380	8	1.1	0.9	1.0110	0.0019	0.0000	0.0000;
	283	1	27.33	11.9	0	1.17	0	1.05937848	-11.1318233	220	5	1.1	0.9	1.0260	0.0049	0.0000	0.0000;
	284	1	191.2	-3.4	0	19.21	0	1.06500323	-13.8191321	220	4	1.1	0.9	1.0329	-0.0002	0.0000	0.0000;
	292	1	13.82	1.4	0	0.7	0	1.09712648	-7.61052122	220	5	1.1	0.9	1.0140	0.0014	0.0000	0.0000;
	297	1	23.73	9.4	0	1.45	0	1.06259178	-12.50318	150	8	1.1	0.9	1.0269	0.0041	0.0000	0.0000;
	299	2	0	0	0	0	0	1.1	-3.64328323	380	4	1.1	0.9	1.0000	-0.0000	23.3577	0.0000;
	304	1	2.2	0.5	0	0.21	0	1.02577884	-17.7388421	150	10	1.1	0.9	1.0459	0.0007	0.0000	0.0000;
	305	1	103	12	0	0.63	0	1.08239262	-18.9329508	220	5	1.1	0.9	1.0465	-0.0047	0.0000	0.0000;
	306	1	-0	0	0	4.76	0	1.04695685	-14.1772574	220	5	1.1	0.9	1.0268	-0.0030	0.0000	0.0000;
	311	1	42.05	17.2	0	1.31	0	1.06078025	-12.6847327	150	8	1.1	0.9	1.0269	0.0100	0.0000	0.0000;
	312	1	-0.16	-2.91	0	0.43	0	1.09782251	-9.40895183	110	8	1.1	0.9	1.0001	-0.0432	0.0000	0.0000;
	314	1	163.1	46.3	0	10.6	0	1.03435621	-14.3656904	220	5	1.1	0.9	1.0397	0.0132	0.0000	0.0000;
	315	1	-0	-0	0	2.13	0	1.04097558	-5.91769256	220	10	1.1	0.9	1.0030	-0.0026	0.0000	0.0000;
	317	1	-0	-0	0.045946	-1.82203	0	1.04047535	-2.05203175	380	2	1.1	0.9	1.0002	-0.0001	0.0000	0.0000;
	322	1	303.8	85.4	0	3.63	0	0.988753865	-11.3028386	220	10	1.1	0.9	1.0292	0.0036	0.0000	0.0000;
	326	1	0	0	0	0	0	1.04119413	-3.40531187	220	8	1.1	0.9	1.0006	0.0020	0.0000	0.0000;
	333	1	524.5	43	0	6.85	0	1.03832817	-26.4221222	220	5	1.1	0.9	1.1045	0.0123	0.0000	0.0000;
	338	2	0	0	0	0	0	1.0992555	-3.14260798	220	5	1.1	0.9	1.0000	-0.0000	0.0000	0.0000;
	344	1	372.8	147.5	0	27.73	0	1.06930826	-18.1963145	150	8	1.1	0.9	1.0544	0.0060	0.0000	0.0000;
	346	1	197.5	48.3	0	0.71	0	1.0849221	-13.1962302	220	5	1.1	0.9	1.0307	0.0014	0.0000	0.0000;
	349	1	-0	0	0	15.15	0	1.0825342	-9.38176817	150	8	1.1	0.9	1.0212	0.0041	0.0000	0.0000;
	350	1	110.4	26.2	0	5.62	0	1.06861913	-16.5814435	220	5	1.1	0.9	1.0390	-0.0083	0.0000	0.0000;
	351	1	-0.15	-1.93	0	0	0	1.04554864	-8.28248642	220	8	1.1	0.9	1.0233	0.0017	0.0000	0.0000;
	352	2	0	0	0	0	0	1.01938697	1.51045189	380	5	1.1	0.9	1.0000	-0.0000	0.0000	0.0000;
	360	1	35.54	11.5	0	3.65	0	1.09125935	-9.57288328	110	8	1.1	0.9	1.0059	-0.0435	0.0000	0.0000;
	367	1	65.17	-51.5	0	4.85	0	1.09517984	-17.892377	220	5	1.1	0.9	1.0244	-0.0703	0.0000	0.0000;
	369	1	-0	0	0	3.78	0	1.07525516	-9.8477066	220	8	1.1	0.9	1.0327	-0.0025	0.0000	0.0000;
	370	1	56.76	23.2	0	0.49	0	1.05822763	-12.8560066	150	8	1.1	0.9	1.0291	0.0109	0.0000	0.0000;
	377	1	-0.18	-1	0	0	0	1.07181289	-5.56819304	150	8	1.1	0.9	1.0138	0.0023	0.0000	0.0000;
	380	1	-95.71	-2.8	0	7.25	0	1.01426679	-3.26302237	220	10	1.1	0.9	0.9899	-0.0008	0.0000	0.0000;
	385	1	-0	-0	0	105.84	0	1.08477967	-8.95977893	380	4	1.1	0.9	1.0202	-0.0024	0.0000	0.0000;
	387	1	-0.19	-4.38	0	0	0	1.06771239	-11.0108918	150	8	1.1	0.9	1.0210	0.0051	0.0000	0.0000;
	389	2	0	0	0	0	0	1.03102888	-8.32495263	150	10	1.1	0.9	1.0000	-0.0000	0.0000	0.0000;
	392	1	134.1	34.2	0	0.75	0	1.05690801	-13.7336737	150	8	1.1	0.9	1.0299	0.0063	0.0000	0.0000;
	395	1	-0	-0	0	7.85	0	1.07786555	-3.63505483	380	8	1.1	0.9	1.0128	0.0025	0.0000	0.0000;
	401	1	56.5	36.29	0	3.08	0	1.09477044	-5.09079523	220	5	1.1	0.9	1.0005	0.0002	0.0000	0.0000;
	408	1	129.1	7.4	0	0.04	0	1.06847561	-10.6608571	220	5	1.1	0.9	1.0227	0.0026	0.0000	0.0000;
	410	1	170.89	50.38	0	6.44	0	1.08289273	-10.7383584	220	5	1.1	0.9	1.0251	0.0002	0.0000	0.0000;
	413	2	0	0	0	0	0	1.07837454	1.005023	220	5	1.1	0.9	1.0000	-0.0000	0.0000	0.0000;
	415	1	4.71	0.7	0	11.39	0	1.069427	-10.2778067	220	4	1.1	0.9	1.0177	-0.0018	0.0000	0.0000;
	416	1	70.68	13.5	0	6.96	0	1.08893667	-5.76149715	220	5	1.1	0.9	1.0046	0.0012	0.0000	0.0000;
	420	1	0	0	0	0	0	1.09115786	-1.44211171	380	8	1.1	0.9	1.0025	0.0007	0.0000	0.0000;
	425	1	-0	0	0	2.72	0	1.05830955	-4.89557194	380	1	1.1	0.9	1.0133	0.0018	0.0000	0.0000;
	426	1	123.1	6.5	0	3.25	0	1.08060368	-9.54360418	220	5	1.1	0.9	1.0307	0.0011	0.0000	0.0000;
	427	1	-0	0	0	1.24	0	1.08650346	-4.22731369	380	1	1.1	0.9	1.0000	-0.0022	0.0000	0.0000;
	429	1	26.93	-22.4	0	4.95	0	1.08621403	-6.23788287	220	4	1.1	0.9	1.0014	0.0003	0.0000	0.0000;
	432	1	-0	-0	0	68.517663	0	1.05994795	0.0965048005	380	5	1.1	0.9	0.9978	-0.0002	0.0000	0.0000;
	440	2	0	0	0	0	0	1.03858093	-3.64086608	220	4	1.1	0.9	1.0000	-0.0000	0.0000	0.0000;
	441	1	-0	0	0.199768	27.888516	0	1.07040503	-15.9349812	380	10	1.1	0.9	1.0476	0.0017	0.0000	0.0000;
	442	2	0	0	0	0	0	1.06194948	-3.69569331	220	4	1.1	0.9	1.0000	0.0004	0.0000	0.0000;
	444	1	0	-0	0	2.45	0	1.05941257	-11.1625196	220	5	1.1	0.9	1.0255	0.0049	0.0000	0.0000;
	445	1	36.74	10.3	0	8.1	0	1.06473514	-10.1231163	220	4	1.1	0.9	1.0153	0.0003	0.0000	0.0000;
	449	1	0	0	0	29.42	0	1.02408938	-2.7748531	380	5	1.1	0.9	1.0043	-0.0000	0.0000	0.0000;
	453	2	0	0	0	0	0	1.0661751	-1.09495106	380	5	1.1	0.9	1.0000	-0.0000	0.0000	0.0000;
	455	1	274.32	5.66	0	13.24	0	1.0685495	-16.8951049	220	5	1.1	0.9	1.0524	0.0063	0.0000	0.0000;
	472	1	336.2	131.6	0	64.01	0	1.08318297	-10.5081439	150	8	1.1	0.9	1.0195	0.0049	0.0000	0.0000;
	473	1	-22.95	-3.72	0	14.34	0	1.06934793	-4.65753959	220	4	1.1	0.9	1.0015	-0.0037	0.0000	0.0000;
	477	1	0	0	0	70.37	0	1.07606499	-6.63785912	380	4	1.1	0.9	1.0124	-0.0031	0.0000	0.0000;
	481	1	-0	0	0	17.44	0	1.06557414	-13.4439454	220	4	1.1	0.9	1.0312	-0.0001	0.0000	0.0000;
	483	1	57.26	15.6	0	3.43	0	1.08932611	-7.26551762	220	4	1.1	0.9	1.0032	0.0004	0.0000	0.0000;
	486	1	7.01	2	0	0.44	0	1.06522912	-10.4646949	150	8	1.1	0.9	1.0195	0.0046	0.0000	0.0000;
	489	2	0	0	0	0	0	1.06321195	-5.36967405	220	4	1.1	0.9	1.0033	0.0000	0.0000	0.0000;
	490	1	20.52	4	0	2.77	0	1.05760537	-16.822664	220	5	1.1	0.9	1.0337	-0.0008	0.0000	0.0000;
	496	1	-0	-0	0	10.04	0	1.07009247	-5.30981984	150	8	1.1	0.9	1.0159	0.0029	0.0000	0.0000;
	500	1	144.4	35.5	0	7.66	0	1.08110532	-6.43448287	220	5	1.1	0.9	1.0097	0.0020	0.0000	0.0000;
	502	1	-0	0	0	1.96	0	1.07672822	-2.47923403	220	5	1.1	0.9	1.0001	0.0000	0.0000	0.0000;
	506	1	-0	0	0	0.4	0	1.08275242	-0.930834892	380	5	1.1	0.9	1.0001	0.0000	0.0000	0.0000;
	509	1	77.29	7	0	17.6	0	1.08590868	-15.3345634	220	4	1.1	0.9	1.0364	0.0007	0.0000	0.0000;
	513	1	57.46	17.1	0	1.61	0	1.07215858	-3.31840938	220	5	1.1	0.9	1.0041	0.0009	0.0000	0.0000;
	516	2	0	0	0	0	0	1.09245657	-16.1972228	220	5	1.1	0.9	1.0400	0.0000	0.0000	0.0000;
	519	1	207.2	9.4	0	8.77	0	1.07875089	-8.85438711	220	4	1.1	0.9	1.0174	-0.0015	0.0000	0.0000;
	520	1	118.5	20.4	0	2.57	0	1.09449757	-7.58229461	220	5	1.1	0.9	1.0109	0.0003	0.0000	0.0000;
	523	1	189.9	74.7	0	26.2	0	1.07740139	-11.1612865	150	8	1.1	0.9	1.0284	0.0062	0.0000	0.0000;
	527	1	277.7	45.4	0	0.7	0	1.06435598	-5.06604401	220	4	1.1	0.9	1.0016	0.0001	0.0000	0.0000;
	536	1	87.8	-1.4	0.079073	36.047349	0	1.08922944	-12.2332083	380	10	1.1	0.9	1.0300	-0.0006	0.0000	0.0000;
	539	1	57.96	18.9	0	14.91	0	1.0635423	-11.2680242	150	8	1.1	0.9	1.0245	0.0051	0.0000	0.0000;
	544	1	79.69	39.6	0	18.83	0	1.07225852	-15.6665511	380	10	1.1	0.9	1.0455	0.0015	0.0000	0.0000;
	548	1	30.93	8.9	0	0.45	0	1.04345663	-11.659672	110	8	1.1	0.9	1.0272	0.0020	0.0000	0.0000;
	549	1	0	-0	0	5.15	0	1.09999745	-4.02145666	220	5	1.1	0.9	1.0032	-0.0079	0.0023	0.0000;
	550	1	0	-0	0	10	0	1.06542499	-9.15796587	220	4	1.1	0.9	1.0139	-0.0032	0.0000	0.0000;
	552	1	180.8	90.8	0	2.42	0	0.992909203	-9.18801553	150	10	1.1	0.9	1.0241	0.0059	0.0000	0.0000;
	554	1	0	-0	0	1.97	0	1.06876209	-13.0938328	220	5	1.1	0.9	1.0294	0.0049	0.0000	0.0000;
	556	1	16.52	9	0	1.17	0	1.05830902	-16.6208111	220	5	1.1	0.9	1.0324	-0.0009	0.0000	0.0000;
	558	1	-0.18	-3.57	0	0	0	1.06091463	-1.62509798	150	8	1.1	0.9	1.0029	0.0004	0.0000	0.0000;
	559	1	42.25	16.6	0	0	0	1.06473298	-12.0278364	150	8	1.1	0.9	1.0262	0.0059	0.0000	0.0000;
	561	1	0	-0	0	0.32	0	1.09047805	-2.9628867	220	5	1.1	0.9	1.0047	0.0001	0.0000	0.0000;
	564	2	0	0	0	0	0	1.0973328	-28.342227	220	5	1.1	0.9	1.0766	-0.0392	0.0000	0.0000;
	575	1	0	-0	0	0.67	0	1.06810222	-10.7766402	220	5	1.1	0.9	1.0232	0.0032	0.0000	0.0000;
	577	1	-0.13	-1	0	0	0	1.04070515	-3.50202783	220	8	1.1	0.9	1.0005	0.0020	0.0000	0.0000;
	579	1	17.32	6.6	0	16.52	0	1.08561709	-7.79798762	380	4	1.1	0.9	1.0150	0.0006	0.0000	0.0000;
	583	2	0	0	0	0	0	1.09144742	-4.44278096	220	5	1.1	0.9	1.0000	0.0004	0.0000	0.0000;
	585	1	21.12	8.3	0	4.26	0	1.07481975	-12.4686362	150	8	1.1	0.9	1.0236	0.0012	0.0000	0.0000;
	593	1	-0	0	0	29.2	0	1.09259662	-1.7765687	380	8	1.1	0.9	1.0019	0.0000	0.0000	0.0000;
	594	1	67.57	17	0	5.75	0	1.06016957	-1.2632979	220	5	1.1	0.9	1.0128	0.0026	0.0000	0.0000;
	595	1	47.55	5.3	0	7.59	0	1.07863229	-9.36464558	220	4	1.1	0.9	1.0210	-0.0015	0.0000	0.0000;
	597	1	33.34	15.7	0	64.15	0	1.09702919	-8.31632636	380	4	1.1	0.9	1.0175	-0.0049	0.0000	0.0000;
	601	1	140.6	42.6	0	5.71	0	1.09171958	-6.55611362	220	5	1.1	0.9	1.0097	0.0019	0.0000	0.0000;
	602	1	110.8	-8.8	0	3.15	0	1.06564541	-12.5409338	220	4	1.1	0.9	1.0260	-0.0004	0.0000	0.0000;
	604	1	33.24	4.4	0	24.54	0	1.02569408	-8.09685832	380	5	1.1	0.9	1.0217	-0.0003	0.0000	0.0000;
	608	1	150.9	10.4	0	4.77	0	1.09616187	-7.82796997	220	5	1.1	0.9	1.0127	-0.0135	0.0000	0.0000;
	609	1	-0	-0	0	5.67	0	1.06857957	-8.1741205	220	5	1.1	0.9	1.0191	0.0056	0.0000	0.0000;
	610	1	-0	0	0	0.91	0	1.02248543	-19.3619926	150	10	1.1	0.9	1.0553	0.0015	0.0000	0.0000;
	615	2	0	0	0	0	0	1.09761134	-3.57779341	220	5	1.1	0.9	0.9927	-0.0000	0.0000	0.0000;
	616	2	0	0	0	0	0	1.1	-4.95573072	220	5	1.1	0.9	1.0005	-0.0000	14.7110	0.0000;
	618	2	0	0	0	0	0	1.09399144	-4.84619633	380	4	1.1	0.9	1.0057	0.0000	0.0000	0.0000;
	619	1	72.88	14.4	0	2.96	0	1.09427835	-16.7633845	220	5	1.1	0.9	1.0384	0.0023	0.0000	0.0000;
	621	1	21.42	8.1	0	7.38	0	1.07194296	-11.2677817	220	4	1.1	0.9	1.0310	0.0018	0.0000	0.0000;
	628	2	0	0	0	0	0	0.999296698	-5.06852077	220	10	1.1	0.9	1.0000	0.0000	0.0000	0.0000;
	639	2	0	0	0	0	0	1.09665626	-19.7474668	220	5	1.1	0.9	1.0647	0.0000	0.0000	0.0000;
	641	1	45.32	18.5	0	0.74	0	1.096255	-1.32500178	220	5	1.1	0.9	1.0050	0.0007	0.0000	0.0000;
	642	2	0	0	0	0	0	1.09453644	-5.47563116	380	4	1.1	0.9	1.0071	0.0000	0.0000	0.0000;
	643	1	15.52	6.3	0	0.6	0	1.06444045	-12.4429001	150	8	1.1	0.9	1.0237	0.0087	0.0000	0.0000;
	649	1	40.94	19.2	0	5.2	0	1.06593475	-13.6736069	220	4	1.1	0.9	1.0320	-0.0002	0.0000	0.0000;
	650	1	17.22	4.4	0	1.71	0	1.04200283	-13.4952179	110	8	1.1	0.9	1.0455	0.0014	0.0000	0.0000;
	656	1	-0.15	-1.93	0	0	0	1.04552244	-8.28166745	220	8	1.1	0.9	1.0233	0.0017	0.0000	0.0000;
	658	1	258.4	66.7	0	5.87	0	1.06095866	-7.69584944	220	5	1.1	0.9	1.0138	0.0072	0.0000	0.0000;
	659	1	-0	-0	0.174507	73.977052	0	1.04120118	-2.155816	380	2	1.1	0.9	1.0005	0.0001	0.0000	0.0000;
	661	1	-0	-0	0	0.6	0	1.0325695	-2.29282236	380	5	1.1	0.9	1.0034	-0.0001	0.0000	0.0000;
	662	1	0	-0	0	4.14	0	1.062704	-6.76574095	380	8	1.1	0.9	1.0195	0.0032	0.0000	0.0000;
	666	1	-5.61	-2.79	0	150.93	0	1.05939556	-3.06072512	380	5	1.1	0.9	1.0032	-0.0001	0.0000	0.0000;
	676	1	109.3	35.4	0	1.91	0	1.05761288	-11.213601	150	8	1.1	0.9	1.0186	0.0028	0.0000	0.0000;
	678	1	232.1	89.8	0	0.09	0	1.08730857	-2.47865672	220	5	1.1	0.9	1.0087	0.0033	0.0000	0.0000;
	682	2	0	0	0	0	0	1.08759548	-3.33901064	220	5	1.1	0.9	1.0000	-0.0003	0.0000	0.0000;
	686	2	0	0	0	0	0	1.06968145	-4.78841146	220	4	1.1	0.9	1.0000	-0.0000	0.0000	0.0000;
	687	1	-0	0	0	5.6	0	1.07495506	-5.35923511	220	5	1.1	0.9	1.0031	0.0006	0.0000	0.0000;
	693	1	-0	0	0	93.75	0	1.08716516	-3.84129343	380	4	1.1	0.9	1.0016	-0.0008	0.0000	0.0000;
	695	1	96.41	26.5	0	0.08	0	1.02382806	-5.13125162	220	4	1.1	0.9	1.0069	0.0011	0.0000	0.0000;
	698	2	0	0	0	0	0	0.998340059	-2.47536363	220	10	1.1	0.9	0.9923	-0.0000	0.0000	0.0000;
	699	1	36.54	8.4	0	6.58	0	1.07548231	-9.34346077	220	4	1.1	0.9	1.0090	0.0006	0.0000	0.0000;
	702	1	-0	-0	0	0.48	0	1.01328025	-5.81279222	150	10	1.1	0.9	1.0000	-0.0000	0.0000	0.0000;
	706	1	114.8	22.8	0	5.66	0	1.03931206	-7.35572005	220	4	1.1	0.9	1.0120	0.0009	0.0000	0.0000;
	707	1	83.99	21.2	0	5.36	0	1.07164283	-8.13477192	220	5	1.1	0.9	1.0123	0.0037	0.0000	0.0000;
	709	2	0	0	0	0	0	1.09335493	-4.87037024	380	4	1.1	0.9	1.0050	-0.0027	0.0000	0.0000;
	710	1	76.38	5.1	0	3.97	0	1.07921461	-9.091527	220	4	1.1	0.9	1.0177	-0.0052	0.0000	0.0000;
	712	1	110.4	41.9	0	1.88	0	1.04665353	-16.7080926	150	8	1.1	0.9	1.0649	0.0129	0.0000	0.0000;
	718	1	135.11	41	0	5.31	0	1.08391735	-7.75691041	220	5	1.1	0.9	1.0142	0.0024	0.0000	0.0000;
	720	1	-0	-0	0	23.554121	0	1.02679217	-17.6774555	380	5	1.1	0.9	1.0615	0.0005	0.0000	0.0000;
	722	1	0	-0	0	0.78	0	1.06625008	-11.6305123	150	8	1.1	0.9	1.0180	0.0048	0.0000	0.0000;
	726	1	400.3	189.9	0	0.53	0	1.06576374	-6.19583881	220	5	1.1	0.9	1.0056	0.0018	0.0000	0.0000;
	731	1	0	0	0	61.48	0	1.08623968	-9.21839153	380	4	1.1	0.9	1.0212	-0.0028	0.0000	0.0000;
	733	1	58.36	10.7	0	8.41	0	1.03809488	-16.3236025	110	8	1.1	0.9	1.0843	-0.0018	0.0000	0.0000;
	739	2	0	0	0	0	0	1.07460174	-3.29145392	380	4	1.1	0.9	1.0000	-0.0007	0.0000	0.0000;
	742	1	0	-0	0	2.83	0	1.07512754	-5.36074332	220	5	1.1	0.9	1.0031	0.0005	0.0000	0.0000;
	747	1	69.58	16	0	3.03	0	1.09843156	-20.5587957	220	5	1.1	0.9	1.0258	-0.0937	0.0000	0.0000;
	749	2	0	0	0	0	0	1.07809434	-5.02025253	220	5	1.1	0.9	1.0000	-0.0000	0.0000	0.0000;
	750	1	-0	-0	0	18.63	0	1.08812285	-15.2667239	220	5	1.1	0.9	1.0361	-0.0000	0.0000	0.0000;
	751	2	0	0	0	0	0	1.06087291	-3.80892979	220	4	1.1	0.9	1.0000	-0.0000	0.0000	0.0000;
	754	1	132.1	32.4	0	58.29	0	1.08737483	-4.47878584	380	4	1.1	0.9	1.0030	-0.0009	0.0000	0.0000;
	757	2	0	0	0	0	0	1.05400769	-5.42263023	380	5	1.1	0.9	1.0131	0.0007	0.0000	0.0000;
	766	1	-0	0	0	7.85	0	1.08950097	-12.9306937	220	5	1.1	0.9	1.0376	-0.0002	0.0000	0.0000;
	769	1	152.57	40	0	6.12	0	1.04203208	-9.41929898	220	5	1.1	0.9	1.0266	0.0068	0.0000	0.0000;
	772	1	343.9	141.9	0	5.55	0	1.0745536	-7.50135514	220	5	1.1	0.9	1.0151	0.0039	0.0000	0.0000;
	775	1	-55.14	-27.14	0	0	0	1.08325311	-10.5006049	150	8	1.1	0.9	1.0195	0.0049	0.0000	0.0000;
	776	2	0	0	0	0	0	1.09098673	-5.42203665	220	5	1.1	0.9	1.0036	0.0000	0.0000	0.0000;
	778	2	0	0	0	0	0	1.09953836	-3.13751163	220	5	1.1	0.9	1.0000	-0.0000	0.0000	0.0000;
	780	2	0	0	0	0	0	1.03963611	-10.4859168	220	10	1.1	0.9	1.0164	0.0000	0.0000	0.0000;
	784	1	-26	-14.72	0	0	0	1.06526192	-12.3461443	150	8	1.1	0.9	1.0262	0.0030	0.0000	0.0000;
	785	1	-0	-0	0	4.03	0	1.04591284	-4.14165583	220	10	1.1	0.9	1.0008	-0.0011	0.0000	0.0000;
	789	1	-0	-0	0	6.63	0	1.09026604	-5.89381408	220	5	1.1	0.9	1.0042	0.0010	0.0000	0.0000;
	790	1	-0.15	-1	0	0.42	0	1.09965287	-8.52116258	110	8	1.1	0.9	0.9988	-0.0450	0.0000	0.0000;
	792	1	295.3	41.9	0	0	0	1.04096039	-9.03857189	150	2	1.1	0.9	1.0075	0.0051	0.0000	0.0000;
	795	2	0	0	0	0	0	1.1	-0.826867742	220	5	1.1	0.9	1.0001	-0.0000	2.2408	0.0000;
	797	1	2	114.6	0	16.15	0	1.04079862	-3.62025587	220	4	1.1	0.9	1.0010	-0.0013	0.0000	0.0000;
	800	1	50.56	18	0	0.11	0	1.05896223	-11.1642471	220	5	1.1	0.9	1.0264	0.0050	0.0000	0.0000;
	803	2	0	0	0	0	0	1.09869941	-5.64244475	220	5	1.1	0.9	1.0000	-0.0000	0.0000	0.0000;
	804	1	-0	-0	0	7.26	0	1.1	-4.19758489	220	5	1.1	0.9	1.0014	-0.0013	17.7642	0.0000;
	805	1	124.5	29.6	0	15.4	0	1.09830178	-6.45986118	220	5	1.1	0.9	1.0076	0.0011	0.0000	0.0000;
	806	1	-0	-0	0	32.02	0	1.04893733	-6.71575914	380	8	1.1	0.9	1.0185	0.0005	0.0000	0.0000;
	807	2	0	0	0	0	0	1.0993676	-3.31600403	380	4	1.1	0.9	1.0000	-0.0000	0.0000	0.0000;
	808	1	24.53	8.6	0	7.01	0	1.08412173	-8.35928157	220	4	1.1	0.9	1.0117	0.0011	0.0000	0.0000;
	809	1	0	-0	0	58.088687	0	1.0390457	-1.98307953	380	5	1.1	0.9	1.0013	0.0002	0.0000	0.0000;
	814	1	287.7	16.3	0	12.86	0	1.08410066	-7.04526057	380	4	1.1	0.9	1.0125	0.0008	0.0000	0.0000;
	819	1	0	-0	0	0.22	0	1.08652348	-2.88849006	220	5	1.1	0.9	0.9988	-0.0001	0.0000	0.0000;
	823	2	0	0	0	0	0	1.02197445	0.67460146	380	5	1.1	0.9	1.0000	-0.0000	0.0000	0.0000;
	838	1	615.81	286.69	0	101.04	0	1.065713	-13.8336229	150	8	1.1	0.9	1.0455	0.0094	0.0000	0.0000;
	839	1	-0	-0	0	8.17514	0	1.03699383	-2.65337142	380	5	1.1	0.9	1.0033	0.0004	0.0000	0.0000;
	849	2	0	0	0	0	0	1.07887695	-3.60573283	380	4	1.1	0.9	0.9998	-0.0000	0.0000	0.0000;
	851	2	0	0	0	0	0	1.09984057	-1.46940695	220	5	1.1	0.9	1.0007	0.0001	0.0000	0.0000;
	854	1	49.96	7.5	0	8.86	0	1.0724124	-12.282543	220	4	1.1	0.9	1.0269	-0.0024	0.0000	0.0000;
	858	2	0	0	0	0	0	1.03993315	-1.44275853	380	5	1.1	0.9	1.0000	-0.0000	0.0000	0.0000;
	869	1	94.2	5.5	0	6.51	0	1.06591058	-12.1022125	220	4	1.1	0.9	1.0231	-0.0002	0.0000	0.0000;
	870	1	110	3.4	0	11.95	0	1.08779503	-15.410982	220	5	1.1	0.9	1.0369	-0.0001	0.0000	0.0000;
	871	1	108.89	-21.76	0	3.72	0	1.08856007	-3.65516338	220	5	1.1	0.9	1.0062	0.0002	0.0000	0.0000;
	878	1	0	-0	0	25.28	0	1.07990965	-7.00624956	150	8	1.1	0.9	1.0180	0.0022	0.0000	0.0000;
	883	1	192.5	78.3	0	6.65	0	1.06498852	-6.63530999	220	5	1.1	0.9	1.0179	0.0062	0.0000	0.0000;
	891	2	0	0	0	0	0	1.08440123	-3.97481672	380	5	1.1	0.9	1.0103	0.0000	0.0000	0.0000;
	892	1	-0	-0	0	9.1	0	1.08691348	-17.713984	220	5	1.1	0.9	1.0482	0.0003	0.0000	0.0000;
	898	1	25.63	7.9	0	0.77	0	1.04052894	-11.8654974	110	8	1.1	0.9	1.0299	0.0090	0.0000	0.0000;
	900	1	0	0	0	0.15	0	1.08039746	-6.44487405	220	5	1.1	0.9	1.0194	0.0012	0.0000	0.0000;
	903	1	82.69	20.1	0	1.36	0	1.09839552	-20.5827461	220	5	1.1	0.9	1.0256	-0.0937	0.0000	0.0000;
	905	1	631.71	-54.16	0	7.534129	0	1.07009012	-5.08192861	380	5	1.1	0.9	1.0064	-0.0002	0.0000	0.0000;
	907	1	-0	-0	0	0.05	0	1.09288	-3.75991107	220	5	1.1	0.9	1.0001	-0.0000	0.0000	0.0000;
	908	1	125.9	-0.5	0	0.21	0	1.09290386	-1.79820605	220	5	1.1	0.9	0.9998	-0.0000	0.0000	0.0000;
	913	2	0	0	0	0	0	1.05840505	-2.14002537	380	2	1.1	0.9	1.0020	0.0000	0.0000	0.0000;
	916	2	0	0	0	0	0	1.04144631	-3.34617095	220	4	1.1	0.9	0.9999	-0.0000	0.0000	0.0000;
	919	1	-0	0	0	13.89	0	1.05309765	-7.0455456	380	8	1.1	0.9	1.0225	0.0032	0.0000	0.0000;
	920	1	34.44	8.5	0	1.11	0	1.0895483	-12.7095734	220	5	1.1	0.9	1.0265	0.0003	0.0000	0.0000;
	923	1	62.07	14.7	0	4.84	0	1.05686499	-16.9073166	220	5	1.1	0.9	1.0349	-0.0007	0.0000	0.0000;
	928	1	112.9	19.3	0	17.34	0	1.06144136	-12.8038447	150	8	1.1	0.9	1.0299	0.0053	0.0000	0.0000;
	929	1	43.75	12.4	0	9.35	0	1.06534918	-11.6519314	220	4	1.1	0.9	1.0208	0.0003	0.0000	0.0000;
	930	2	0	0	0	0	0	1.07759704	-3.59634154	380	4	1.1	0.9	1.0000	-0.0000	0.0000	0.0000;
	932	1	77.59	12.3	0	5.1	0	1.07302867	-12.0534547	220	4	1.1	0.9	1.0262	-0.0020	0.0000	0.0000;
	933	1	-0	0	0	22.75	0	1.07702414	-8.80909706	220	5	1.1	0.9	1.0247	0.0040	0.0000	0.0000;
	935	1	-0	0	0	9.46	0	1.0962977	-16.0451624	220	5	1.1	0.9	1.0332	0.0023	0.0000	0.0000;
	947	1	90.7	5.8	0	4.1	0	1.04322801	-6.34861436	220	4	1.1	0.9	0.9984	0.0028	0.0000	0.0000;
	948	1	15.82	4	0	0.7	0	1.02291905	-18.9847612	150	10	1.1	0.9	1.0532	0.0015	0.0000	0.0000;
	950	1	69.08	22.6	0	0.54	0	1.06642198	-12.9269897	150	8	1.1	0.9	1.0310	0.0007	0.0000	0.0000;
	953	1	108.7	-12.15	0	37.11	0	1.0541265	-4.81428615	380	5	1.1	0.9	1.0132	0.0007	0.0000	0.0000;
	954	1	66.27	13.6	0	0.67	0	1.09411651	-11.9494877	220	5	1.1	0.9	1.0302	0.0016	0.0000	0.0000;
	955	1	244.2	152.7	0	0	0	1.03643193	-11.8537095	150	2	1.1	0.9	1.0245	0.0147	0.0000	0.0000;
	957	1	65.77	16.1	0	1.66	0	1.06196383	-4.94327762	220	4	1.1	0.9	1.0034	0.0004	0.0000	0.0000;
	960	1	-0	-0	0	108.728602	0	1.08275108	-0.930830308	380	5	1.1	0.9	1.0001	0.0000	0.0000	0.0000;
	962	1	42.55	17.1	0	1.67	0	1.06913632	-9.71698668	220	4	1.1	0.9	1.0230	-0.0029	0.0000	0.0000;
	964	1	88.5	16.5	0	146.44	0	1.05742283	-4.40647939	380	5	1.1	0.9	1.0101	0.0009	0.0000	0.0000;
	970	1	62.27	-2.1	0	8.01	0	1.04868264	-3.68457449	220	4	1.1	0.9	1.0016	-0.0005	0.0000	0.0000;
	972	2	0	0	0	0	0	1.06133546	0.845462285	380	5	1.3	0.7	0.9946	-0.0000	0.0000	0.0000;
	976	2	0	0	0	0	0	1.09402535	-5.32477094	380	4	1.1	0.9	1.0073	0.0002	0.0000	0.0000;
	980	1	14.71	4.6	0	7.88	0	1.0946477	-16.6587014	220	5	1.1	0.9	1.0373	0.0024	0.0000	0.0000;
	981	1	0	-0	0	0.84	0	1.06042463	-3.96757916	220	4	1.1	0.9	1.0012	0.0001	0.0000	0.0000;
	986	1	15.98	0.86	0	5.96	0	1.06440449	-9.76807058	220	4	1.1	0.9	1.0176	-0.0006	0.0000	0.0000;
	987	1	-0	0	0	1.18	0	1.01918833	-5.89017352	150	10	1.1	0.9	1.0033	0.0004	0.0000	0.0000;
	988	1	-0	-0	0	8.62	0	1.07089645	-11.2102598	220	4	1.1	0.9	1.0227	-0.0017	0.0000	0.0000;
	994	1	-0	-0	0	25	0	1.06551597	-12.4417825	150	8	1.1	0.9	1.0215	0.0054	0.0000	0.0000;
	999	1	20.02	6.8	0	0.48	0	1.02316559	-8.50637755	110	8	1.1	0.9	1.0162	0.0086	0.0000	0.0000;
	1000	1	0	-0	0	1.8	0	1.02438024	-3.9712146	220	1	1.1	0.9	0.9994	-0.0001	0.0000	0.0000;
	1001	2	0	0	0	0	0	1.09111677	-16.3800566	220	5	1.1	0.9	1.0406	0.0002	0.0000	0.0000;
	1002	2	0	0	0	0	0	1.08840075	-12.0553203	220	5	1.1	0.9	1.0246	0.0001	0.0000	0.0000;
	1005	1	0	0	0	0.81	0	1.0963447	-4.77634686	220	5	1.1	0.9	0.9982	-0.0000	0.0000	0.0000;
	1010	1	21.32	7.3	0	0.6	0	1.02633125	-6.44812418	110	8	1.1	0.9	1.0046	0.0072	0.0000	0.0000;
	1011	1	-0.2	-1	0	0	0	1.06968536	-18.1925859	150	8	1.1	0.9	1.0544	0.0060	0.0000	0.0000;
	1013	1	136.06	40.4	0	12.08	0	1.03699191	-6.96347169	220	4	1.1	0.9	1.0144	0.0008	0.0000	0.0000;
	1015	1	44.55	0	0	4.78	0	1.09694037	-5.19144869	220	5	1.1	0.9	1.0020	-0.0002	0.0000	0.0000;
	1020	1	8.21	3.31	0	8.38	0	1.06770329	-11.010913	150	8	1.1	0.9	1.0210	0.0051	0.0000	0.0000;
	1021	2	0	0	0	0	0	1.06487152	-5.45841882	220	4	1.1	0.9	1.0022	-0.0000	0.0000	0.0000;
	1023	1	-0	0	0	0.93	0	1.08683681	-8.76560709	220	4	1.1	0.9	1.0143	-0.0010	0.0000	0.0000;
	1025	1	241.4	-2.5	0.224624	31.280331	0	1.0636987	-16.1328646	380	10	1.1	0.9	1.0490	0.0029	0.0000	0.0000;
	1026	1	201.4	53	0	9.67	0	1.06036883	-10.5054477	220	5	1.1	0.9	1.0312	0.0068	0.0000	0.0000;
	1027	1	-5.91	-2.33	0	30.393595	0	1.01139018	-11.9502295	380	5	1.1	0.9	1.0315	-0.0129	0.0000	0.0000;
	1030	2	0	0	0	0	0	1.02871821	-3.89318225	220	4	1.1	0.9	1.0000	0.0000	0.0000	0.0000;
	1033	1	26.33	5.3	0	4.31	0	1.08794902	-15.3377854	220	5	1.1	0.9	1.0370	-0.0002	0.0000	0.0000;
	1035	1	382.5	57.9	0	8.16	0	1.08301005	-18.8239169	220	5	1.1	0.9	1.0458	-0.0048	0.0000	0.0000;
	1036	2	0	0	0	0	0	1.04551659	-2.98771252	220	10	1.1	0.9	0.9934	-0.0000	0.0000	0.0000;
	1037	1	-0	0	0	0.55	0	1.04446633	-2.97363475	380	2	1.1	0.9	1.0027	-0.0004	0.0000	0.0000;
	1039	1	34.64	-0	0	0.91	0	1.08606073	-6.33748582	220	5	1.1	0.9	1.0088	0.0012	0.0000	0.0000;
	1040	1	31.94	8.8	0	3.79	0	1.09164943	-4.22624853	220	5	1.1	0.9	1.0020	0.0000	0.0000	0.0000;
	1043	2	0	0	0	0	0	1.07018044	-1.02649347	380	5	1.1	0.9	0.9999	-0.0000	0.0000	0.0000;
	1046	1	47.05	19.3	0	0.04	0	1.0573294	-15.0860962	150	8	1.1	0.9	1.0388	0.0085	0.0000	0.0000;