function mpc = case2737sop
%CASE2737SOP

%% MATPOWER Case Format : Version 2
mpc.version = '2';

%%-----  Power Flow Data  -----%%
%% system MVA base
mpc.baseMVA = 100;

%% bus data
%	bus_i	type	Pd	Qd	Gs	Bs	area	Vm	Va	baseKV	zone	Vmax	Vmin	lam_P	lam_Q	mu_Vmax	mu_Vmin
mpc.bus = [
	1	1	0	0	0	0	1	1.09901695	3.24816321	220	1	1.11	0.95	89.4541	0.1764	0.0000	0.0000;
	2	1	0	0	0	0	1	1.10641111	2.16817678	220	1	1.11	0.95	89.7960	-0.0343	0.0000	0.0000;
	3	1	0	0	0	0	1	1.08147917	-12.4787097	220	1	1.11	0.95	96.4431	-0.3427	0.0000	0.0000;
	4	1	0	0	0	0	1	1.09807427	-0.113354255	220	1	1.11	0.95	90.6899	0.0164	0.0000	0.0000;
	5	1	0	0	0	0	1	1.09808416	-0.10920767	220	1	1.11	0.95	90.6899	0.0169	0.0000	0.0000;
	6	1	0	0	0	0	1	1.0780827	-7.25502783	220	1	1.11	0.95	93.2980	-0.4700	0.0000	0.0000;
	7	1	0	0	0	0	1	1.07816582	-7.25240889	220	1	1.11	0.95	93.2950	-0.4715	0.0000	0.0000;
	8	1	0	0	0	-50	1	1.04221442	-5.25710505	400	1	1.05	0.95	92.7655	-0.7349	0.0000	0.0000;
	9	1	0	0	0	0	1	1.042245	-5.25672883	400	1	1.05	0.95	92.7649	-0.7357	0.0000	0.0000;
	10	1	0	0	0	0	1	1.07134147	-6.84636469	220	1	1.11	0.95	93.4477	-0.3035	0.0000	0.0000;
	11	1	0	0	0	0	1	1.07131324	-6.84987315	220	1	1.11	0.95	93.4491	-0.3020	0.0000	0.0000;
	12	1	0	0	0	0	1	1.07131022	-6.847051	220	1	1.11	0.95	93.4487	-0.3004	0.0000	0.0000;
	13	1	0	0	0	0	1	1.07129008	-6.85391602	220	1	1.11	0.95	93.4495	-0.3005	0.0000	0.0000;
	14	1	0	0	0	-50	1	1.03622635	-4.22992238	400	1	1.05	0.95	92.4285	-0.4336	0.0000	0.0000;
	15	1	0	0	0	0	1	1.05	-6.64634689	400	1	1.05	0.95	93.0069	-1.4941	1073.0093	0.0000;
	16	1	0	0	0	0	1	1.05	-6.64634689	400	1	1.05	0.95	93.0069	-1.4948	1073.0093	0.0000;
	17	1	0	0	0	0	1	1.07530273	-10.4251732	220	1	1.11	0.95	95.1434	-0.0918	0.0000	0.0000;
	18	1	0	0	0	0	1	1.07524684	-10.4247308	220	1	1.11	0.95	95.1424	-0.0899	0.0000	0.0000;
	19	1	0	0	0	0	1	1.1008412	0.45058507	220	1	1.11	0.95	90.4091	0.0200	0.0000	0.0000;
	20	1	0	0	0	0	1	1.10086258	0.445613875	220	1	1.11	0.95	90.4100	0.0199	0.0000	0.0000;
	21	1	0	0	0	0	1	1.08232888	-6.81963673	220	1	1.11	0.95	93.2572	-0.1720	0.0000	0.0000;
	22	1	0	0	0	0	1	1.08232888	-6.81963673	220	1	1.11	0.95	93.2572	-0.1720	0.0000	0.0000;
	23	1	0	0	0	0	1	1.06873004	-6.89730146	220	1	1.11	0.95	93.4673	-0.3493	0.0000	0.0000;
	24	1	0	0	0	0	1	1.10263319	0.790046958	220	1	1.11	0.95	90.3411	-0.0307	0.0000	0.0000;
	25	1	0	0	0	-50	1	1.03835173	-7.07292422	400	1	1.05	0.95	93.5885	-0.0989	0.0000	0.0000;
	26	2	48.178	65.087	0	0	1	1.10841333	3.58583049	220	1	1.11	0.95	89.2740	-0.0000	0.0000	0.0000;
	27	2	28.145	35.087	0	0	1	1.10753428	2.14785358	220	1	1.11	0.95	89.8202	-0.0642	0.0000	0.0000;
	28	3	0	0	0	0	1	1.04498289	1.77808	400	1	1.05	0.95	90.1770	-0.0800	0.0000	0.0000;
	29	2	44.698	72	0	0	1	1.04497609	1.78677331	400	1	1.05	0.95	90.1743	-0.0800	0.0000	0.0000;
	30	1	0	0	0	0	1	1.07648039	-6.96703115	220	1	1.11	0.95	93.5173	-0.2140	0.0000	0.0000;
	31	1	0	0	0	0	1	1.0465012	0.815249581	400	1	1.05	0.95	90.3433	-0.1524	0.0000	0.0000;
	32	1	0	0	0	0	1	1.06914504	-7.00103901	220	1	1.11	0.95	93.5273	-0.2624	0.0000	0.0000;
	33	1	0	0	0	0	1	1.09945794	-1.39721724	220	1	1.11	0.95	91.0654	0.0323	0.0000	0.0000;
	34	1	0	0	0	0	1	1.11	-3.53569763	220	2	1.11	0.95	90.8130	-4.4809	11884.5134	0.0000;
	35	1	0	0	0	0	1	1.08056087	-4.33736574	220	2	1.11	0.95	92.2381	-1.4295	0.0000	0.0000;
	36	1	0	0	0	0	1	1.09703909	-3.88806672	220	2	1.11	0.95	91.8324	-1.7482	0.0000	0.0000;
	37	1	0	0	0	0	1	1.09699495	-3.88956935	220	2	1.11	0.95	91.8335	-1.7456	0.0000	0.0000;
	38	1	0	0	0	0	1	1.10027246	-3.77952377	220	2	1.11	0.95	91.1202	-3.1841	0.0000	0.0000;
	39	1	0	0	0	0	1	1.10711695	-3.94317319	220	2	1.11	0.95	92.1527	-1.1139	0.0000	0.0000;
	40	1	0	0	0	0	1	1.10705833	-3.94612765	220	2	1.11	0.95	92.1540	-1.1129	0.0000	0.0000;
	41	1	0	0	0	0	1	1.0389123	-3.84813457	400	2	1.05	0.95	92.1117	-1.0874	0.0000	0.0000;
	42	2	13	0	0	0	1	1.08432732	-3.63208407	220	2	1.11	0.95	91.7104	-1.1994	0.0000	0.0000;
	43	2	13	0	0	0	1	1.08435769	-3.62305538	220	2	1.11	0.95	91.7077	-1.2028	0.0000	0.0000;
	44	2	25	0	0	0	1	1.04948652	-3.69214928	400	2	1.05	0.95	91.9632	-1.1588	0.0000	0.0000;
	45	1	0	0	0	0	1	1.0495061	-3.69175907	400	2	1.05	0.95	91.9614	-1.1605	0.0000	0.0000;
	46	1	0	0	0	0	1	1.10661913	-4.23251387	220	2	1.11	0.95	92.3465	-1.1137	0.0000	0.0000;
	47	1	0	0	0	0	1	1.03879272	-6.43519504	400	2	1.05	0.95	92.8582	-0.8927	0.0000	0.0000;
	48	1	0	0	0	0	1	1.03879657	-6.43940703	400	2	1.05	0.95	92.8600	-0.8925	0.0000	0.0000;
	49	1	0	0	0	0	1	1.04662961	-3.58747263	400	2	1.05	0.95	91.6686	-1.5077	0.0000	0.0000;
	50	1	0	0	0	0	1	1.10035494	-3.20912523	220	2	1.11	0.95	90.7525	-3.2779	0.0000	0.0000;
	51	1	0	0	0	0	1	1.10032972	-3.20655337	220	2	1.11	0.95	90.7526	-3.2760	0.0000	0.0000;
	52	1	0	0	0	0	1	1.04779582	-4.17107645	400	2	1.05	0.95	92.1594	-1.1841	0.0000	0.0000;
	53	1	0	0	0	0	1	1.04779226	-4.17023764	400	2	1.05	0.95	92.1594	-1.1841	0.0000	0.0000;
	54	1	0	0	0	0	1	1.09777477	-3.59269667	220	2	1.11	0.95	91.8019	-1.3761	0.0000	0.0000;
	55	2	13	0	0	0	1	1.09774462	-3.58597156	220	2	1.11	0.95	91.7977	-1.3775	0.0000	0.0000;
	56	2	13	0	0	0	1	1.04594381	-3.74430557	400	2	1.05	0.95	92.0349	-1.1069	0.0000	0.0000;
	57	2	13	0	0	0	1	1.04592721	-3.74779908	400	2	1.05	0.95	92.0363	-1.1067	0.0000	0.0000;
	58	2	67.882	25.273	0	0	1	1.09017111	-3.8349927	220	2	1.11	0.95	91.6228	-1.9772	0.0000	0.0000;
	59	1	0	0	0	0	1	1.09023741	-3.83249097	220	2	1.11	0.95	91.6208	-1.9836	0.0000	0.0000;
	60	1	0	0	0	0	1	1.10325076	-4.31209297	220	2	1.11	0.95	92.3332	-1.1330	0.0000	0.0000;
	61	1	0	0	0	0	1	1.08983537	-4.08138697	220	2	1.11	0.95	91.9929	-1.3267	0.0000	0.0000;
	62	1	0	0	0	0	1	1.08979968	-4.08133954	220	2	1.11	0.95	91.9922	-1.3286	0.0000	0.0000;
	63	1	0	0	0	0	1	1.03752351	-4.59721696	400	2	1.05	0.95	92.2902	-0.9229	0.0000	0.0000;
	64	1	0	0	0	0	1	1.03754706	-4.60526786	400	2	1.05	0.95	92.2929	-0.9231	0.0000	0.0000;
	65	1	0	224.802	0	0	1	1.04966017	-4.58005651	750	2	1.05	0.9	92.2902	-0.9064	0.0000	0.0000;
	66	1	0	0	0	0	1	1.10117201	-4.09839069	220	2	1.11	0.95	91.7019	-2.5633	0.0000	0.0000;
	67	1	0	0	0	0	1	1.10182034	-4.00802697	220	2	1.11	0.95	91.6418	-2.6076	0.0000	0.0000;
	68	1	0	0	0	0	1	1.09693203	-2.69966005	220	2	1.11	0.95	90.5691	-3.0611	0.0000	0.0000;
	69	1	0	0	0	0	1	1.09999164	-1.48421718	220	3	1.11	0.95	91.1478	-0.2189	0.0000	0.0000;
	70	1	0	0	0	0	1	1.10080252	-4.4724596	220	3	1.11	0.95	92.2378	-0.9260	0.0000	0.0000;
	71	1	0	0	0	0	1	1.10079769	-4.47111709	220	3	1.11	0.95	92.2371	-0.9271	0.0000	0.0000;
	72	1	0	0	0	0	1	1.08637685	-4.36786535	220	3	1.11	0.95	92.3507	0.0114	0.0000	0.0000;
	73	1	0	0	0	0	1	1.08638853	-4.35593905	220	3	1.11	0.95	92.3473	0.0111	0.0000	0.0000;
	74	1	0	0	0	0	1	1.09513495	-3.34412502	220	3	1.11	0.95	91.7343	-0.0662	0.0000	0.0000;
	75	1	0	0	0	0	1	1.09511426	-3.34545201	220	3	1.11	0.95	91.7352	-0.0662	0.0000	0.0000;
	76	1	0	0	0	0	1	1.08126985	-8.00895137	220	3	1.11	0.95	94.1465	0.0101	0.0000	0.0000;
	77	1	0	0	0	0	1	1.08126321	-8.01225991	220	3	1.11	0.95	94.1483	0.0102	0.0000	0.0000;
	78	2	27	70	0	0	1	1.08788443	-3.54538081	220	3	1.11	0.95	91.9848	-0.0000	0.0000	0.0000;
	79	2	9	21	0	0	1	1.08838353	-4.13020451	220	3	1.11	0.95	92.2821	-0.0435	0.0000	0.0000;
	80	1	4.602	0.91	0	0	1	1.0873544	-4.22942697	220	3	1.11	0.95	92.3858	0.0157	0.0000	0.0000;
	81	1	0	0	0	0	1	1.08734889	-4.22961325	220	3	1.11	0.95	92.3863	0.0155	0.0000	0.0000;
	82	2	18	57	0	0	1	1.03880555	-0.611849845	400	3	1.05	0.95	90.7668	-0.1735	0.0000	0.0000;
	83	1	0	0	0	0	1	1.10792765	-2.47041568	220	3	1.11	0.95	91.1678	-0.3512	0.0000	0.0000;
	84	1	0	0	0	0	1	1.09163839	-4.0478366	220	3	1.11	0.95	92.0751	-0.0084	0.0000	0.0000;
	85	1	0	0	0	0	1	1.09160071	-4.04916925	220	3	1.11	0.95	92.0761	-0.0086	0.0000	0.0000;
	86	1	32.969	-8.4	0	0	1	1.10063007	-1.62923479	220	3	1.11	0.95	91.1813	-0.2313	0.0000	0.0000;
	87	1	0	0	0	0	1	1.10062882	-1.63374369	220	3	1.11	0.95	91.1829	-0.2313	0.0000	0.0000;
	88	1	0	0	0	0	1	1.08660428	-3.59172528	220	3	1.11	0.95	91.9372	0.0584	0.0000	0.0000;
	89	1	0	0	0	0	1	1.0865771	-3.59212633	220	3	1.11	0.95	91.9372	0.0584	0.0000	0.0000;
	90	1	0	0	0	0	1	1.10044737	-1.25870784	220	3	1.11	0.95	91.0161	-0.2108	0.0000	0.0000;
	91	1	0	0	0	0	1	1.10046273	-1.26219479	220	3	1.11	0.95	91.0166	-0.2117	0.0000	0.0000;
	92	1	0	0	0	0	1	1.0486485	0.0625200131	400	3	1.05	0.95	90.7531	-0.2014	0.0000	0.0000;
	93	1	0	0	0	0	1	1.04863944	0.061506852	400	3	1.05	0.95	90.7533	-0.2014	0.0000	0.0000;
	94	1	0	0	0	0	1	1.08997867	-3.69029992	220	3	1.11	0.95	91.9076	0.0091	0.0000	0.0000;
	95	1	0	0	0	0	1	1.09000111	-3.6952573	220	3	1.11	0.95	91.9090	0.0090	0.0000	0.0000;
	96	1	0	0	0	0	1	1.10070538	-2.91103348	220	3	1.11	0.95	91.4109	-0.1476	0.0000	0.0000;
	97	1	0	0	0	0	1	1.10074691	-2.90881672	220	3	1.11	0.95	91.4100	-0.1486	0.0000	0.0000;
	98	2	9.938	2.19	0	0	1	1.09119547	-3.78832375	220	3	1.11	0.95	92.1227	-0.1392	0.0000	0.0000;
	99	1	16.652	3.293	0	0	1	1.09121595	-3.78590323	220	3	1.11	0.95	92.1219	-0.1399	0.0000	0.0000;
	100	1	0	0	0	0	1	1.10077821	-4.47095382	220	3	1.11	0.95	92.2371	-0.9266	0.0000	0.0000;
	101	1	0	0	0	0	1	1.10078309	-4.47229676	220	3	1.11	0.95	92.2378	-0.9254	0.0000	0.0000;
	102	1	0	0	0	0	1	1.08189867	-7.43601825	220	3	1.11	0.95	93.9184	0.0324	0.0000	0.0000;
	103	1	0	0	0	0	1	1.08190269	-7.42563856	220	3	1.11	0.95	93.9148	0.0325	0.0000	0.0000;
	104	2	14	40	0	0	1	1.09241883	-4.05451394	220	3	1.11	0.95	92.0999	0.0000	0.0000	0.0000;
	105	1	0	0	0	0	1	1.09230932	-4.07344201	220	3	1.11	0.95	92.1074	0.0016	0.0000	0.0000;
	106	2	7	18	0	0	1	1.09021237	-3.29432081	220	3	1.11	0.95	91.7638	-0.0000	0.0000	0.0000;
	107	1	0	0	0	0	1	1.09016752	-3.29402335	220	3	1.11	0.95	91.7640	-0.0002	0.0000	0.0000;
	108	1	27.63	5.872	0	0	1	1.09446023	-3.32356043	220	3	1.11	0.95	91.9183	-0.2354	0.0000	0.0000;
	109	1	17.522	3.337	0	0	1	1.09447484	-3.33082318	220	3	1.11	0.95	91.9206	-0.2366	0.0000	0.0000;
	110	1	0	0	0	0	1	1.08576819	-4.61350154	220	3	1.11	0.95	92.6224	-0.1118	0.0000	0.0000;
	111	1	0	0	0	0	1	1.08776051	-4.09340582	220	3	1.11	0.95	92.2350	0.0929	0.0000	0.0000;
	112	1	0	0	0	0	1	1.08776673	-4.09412099	220	3	1.11	0.95	92.2356	0.0925	0.0000	0.0000;
	113	1	0	0	0	0	1	1.0867428	-4.24025111	220	3	1.11	0.95	92.4185	0.0044	0.0000	0.0000;
	114	1	0	0	0	0	1	1.08674957	-4.23515606	220	3	1.11	0.95	92.4163	0.0042	0.0000	0.0000;
	115	1	0	0	0	0	1	1.03673989	-2.08885113	400	3	1.05	0.95	91.3773	-0.2474	0.0000	0.0000;
	116	1	0	0	0	0	1	1.08924856	-3.81577526	220	3	1.11	0.95	92.1448	-0.0892	0.0000	0.0000;
	117	2	8	15	0	0	1	1.08923153	-3.80638508	220	3	1.11	0.95	92.1419	-0.0884	0.0000	0.0000;
	118	1	0	0	0	0	1	1.08842565	-4.40065238	220	3	1.11	0.95	92.4356	-0.1892	0.0000	0.0000;
	119	1	0	0	0	0	1	1.08844016	-4.39942115	220	3	1.11	0.95	92.4346	-0.1901	0.0000	0.0000;
	120	1	0	0	0	0	1	1.04710684	-3.94351911	400	3	1.05	0.95	92.0946	-0.9624	0.0000	0.0000;
	121	1	0	0	0	0	1	1.04714483	-3.93955855	400	3	1.05	0.95	92.0930	-0.9625	0.0000	0.0000;
	122	1	0	0	0	0	1	1.04312539	-1.90225366	400	3	1.05	0.95	91.2973	-0.3787	0.0000	0.0000;
	123	1	0	0	0	0	1	1.04317416	-1.89926649	400	3	1.05	0.95	91.2964	-0.3796	0.0000	0.0000;
	124	1	0	0	0	0	1	1.08520813	-4.68563853	220	3	1.11	0.95	92.6854	-0.1137	0.0000	0.0000;
	125	1	2.929	0.867	0	0	1	1.09803293	-3.08370972	220	3	1.11	0.95	91.5213	-0.0537	0.0000	0.0000;
	126	2	19.898	27.707	0	0	1	1.09785256	-3.07820177	220	3	1.11	0.95	91.5216	-0.0507	0.0000	0.0000;
	127	2	12.2	25.8	0	0	1	1.03152188	-1.74496248	400	3	1.05	0.95	91.2698	-0.1117	0.0000	0.0000;
	128	1	0	0	0	0	1	1.03145106	-1.74939623	400	3	1.05	0.95	91.2717	-0.1111	0.0000	0.0000;
	129	1	0	0	0	0	1	1.10052236	-1.72350801	220	3	1.11	0.95	91.2247	-0.2322	0.0000	0.0000;
	130	1	0	0	0	0	1	1.1004765	-1.72430805	220	3	1.11	0.95	91.2246	-0.2314	0.0000	0.0000;
	131	1	0	0	0	0	1	1.09984787	-1.60631727	220	3	1.11	0.95	91.1730	-0.2102	0.0000	0.0000;
	132	2	137	9	0	0	1	1.0806527	-8.43163801	220	3	1.11	0.95	94.3339	0.0000	0.0000	0.0000;
	133	2	137	6	0	0	1	1.08065153	-8.43632266	220	3	1.11	0.95	94.3357	0.0000	0.0000	0.0000;
	134	1	0.515	1.973	0	0	1	1.1014341	-2.06014258	220	4	1.11	0.95	91.2359	0.0003	0.0000	0.0000;
	135	2	15.242	14.277	0	0	1	1.10145854	-2.05739519	220	4	1.11	0.95	91.2347	-0.0000	0.0000	0.0000;
	136	1	0	0	0	0	1	1.10903448	-2.79300672	220	4	1.11	0.95	90.9637	-0.3811	0.0000	0.0000;
	137	1	0	0	0	0	1	1.10842817	-2.17012363	220	4	1.11	0.95	90.6913	-0.2730	0.0000	0.0000;
	138	1	0	0	0	0	1	1.03364808	-2.09280846	400	4	1.05	0.95	91.1815	-0.2233	0.0000	0.0000;
	139	1	0	0	0	0	1	1.03366815	-2.09547876	400	4	1.05	0.95	91.1827	-0.2235	0.0000	0.0000;
	140	1	0	0	0	0	1	1.10182129	-6.91823431	220	4	1.11	0.95	93.8702	-0.1925	0.0000	0.0000;
	141	1	0	0	0	0	1	1.09365824	-6.09447949	220	4	1.11	0.95	94.2789	0.0242	0.0000	0.0000;
	142	1	0	0	0	0	1	1.09365824	-6.09447949	220	4	1.11	0.95	94.2789	0.0242	0.0000	0.0000;
	143	1	0	0	0	0	1	1.10247589	-5.92541664	220	4	1.11	0.95	93.6092	-0.4728	0.0000	0.0000;
	144	1	0	0	0	0	1	1.10641799	-3.29898813	220	4	1.11	0.95	91.1583	-0.2224	0.0000	0.0000;
	145	1	0	0	0	0	1	1.10641799	-3.29898813	220	4	1.11	0.95	91.1583	-0.2224	0.0000	0.0000;
	146	1	7.636	13.257	0	0	1	1.09956097	-3.71266893	220	4	1.11	0.95	91.9131	0.0150	0.0000	0.0000;
	147	1	0	0	0	0	1	1.09962379	-3.71068879	220	4	1.11	0.95	91.9110	0.0144	0.0000	0.0000;
	148	2	10.87	14.867	0	0	1	1.09637398	-5.25098023	220	4	1.11	0.95	93.8268	-0.0078	0.0000	0.0000;
	149	1	0	0	0	0	1	1.09645551	-5.2627219	220	4	1.11	0.95	93.8333	-0.0090	0.0000	0.0000;
	150	2	10.989	15	0	0	1	1.03393381	-7.99694686	400	4	1.05	0.95	94.4682	-0.0000	0.0000	0.0000;
	151	2	20.672	21.479	0	0	1	1.03392466	-7.99441734	400	4	1.05	0.95	94.4673	-0.0003	0.0000	0.0000;
	152	1	0	0	0	0	1	1.09840622	-6.56475884	220	4	1.11	0.95	93.8999	-0.2177	0.0000	0.0000;
	153	1	0	0	0	0	1	1.10775397	-4.22089196	220	4	1.11	0.95	92.2893	-0.9854	0.0000	0.0000;
	154	1	0	0	0	0	1	1.10775539	-4.22335667	220	4	1.11	0.95	92.2902	-0.9818	0.0000	0.0000;
	155	2	0	0	0	0	1	1.10551624	-0.789212418	220	4	1.11	0.95	90.1686	-0.0445	0.0000	0.0000;
	156	2	13.87	33	0	0	1	1.10552981	-0.7834175	220	4	1.11	0.95	90.1678	-0.0451	0.0000	0.0000;
	157	1	0	0	0	0	1	1.02100529	0.0995624169	400	4	1.05	0.95	90.2515	-0.0038	0.0000	0.0000;
	158	2	9.989	25	0	0	1	1.02096952	0.104146638	400	4	1.05	0.95	90.2499	-0.0032	0.0000	0.0000;
	159	1	0	0	0	0	1	1.09817655	-6.09395857	220	4	1.11	0.95	94.2255	-0.0434	0.0000	0.0000;
	160	1	0	0	0	0	1	1.09817655	-6.09395857	220	4	1.11	0.95	94.2255	-0.0434	0.0000	0.0000;
	161	1	0	0	0	0	1	1.03812778	-2.74096184	400	4	1.05	0.95	91.4143	-0.2793	0.0000	0.0000;
	162	1	0	0	0	0	1	1.03812884	-2.23013486	400	4	1.05	0.95	91.2203	-0.2666	0.0000	0.0000;
	163	1	0	0	0	0	1	1.03812752	-2.22973002	400	4	1.05	0.95	91.2202	-0.2667	0.0000	0.0000;
	164	2	11.664	11	0	0	1	1.10106797	-3.79933011	220	4	1.11	0.95	91.9353	0.0000	0.0000	0.0000;
	165	2	11.564	10.667	0	0	1	1.10108377	-3.81319562	220	4	1.11	0.95	91.9425	0.0000	0.0000	0.0000;
	166	1	0	0	0	0	1	1.10108377	-3.81319562	220	4	1.11	0.95	91.9425	0.0000	0.0000	0.0000;
	167	1	0	0	0	0	1	1.10752003	-11.0133186	220	4	1.11	0.95	96.2129	-0.3550	0.0000	0.0000;
	168	1	0	0	0	0	1	1.09296752	-6.15279346	220	4	1.11	0.95	94.3032	0.0424	0.0000	0.0000;
	169	1	0	0	0	0	1	1.1078635	-7.56072373	220	4	1.11	0.95	94.2951	-0.3591	0.0000	0.0000;
	170	1	0	0	0	0	1	1.10786443	-7.56659307	220	4	1.11	0.95	94.2972	-0.3592	0.0000	0.0000;
	171	1	0	0	0	0	1	1.02739346	-7.88102953	400	4	1.05	0.95	94.3677	-0.2580	0.0000	0.0000;
	172	1	0	0	0	0	1	1.02739346	-7.88102953	400	4	1.05	0.95	94.3677	-0.2580	0.0000	0.0000;
	173	1	0	0	0	0	1	1.09726038	-4.76722993	220	4	1.11	0.95	92.7717	-0.1589	0.0000	0.0000;
	174	1	0	0	0	0	1	1.09727291	-4.7650302	220	4	1.11	0.95	92.7710	-0.1583	0.0000	0.0000;
	175	1	0	0	0	0	1	1.09396773	-5.76829554	220	4	1.11	0.95	92.6788	-0.0641	0.0000	0.0000;
	176	1	0	0	0	0	1	1.10867094	-2.73944631	220	4	1.11	0.95	90.9965	-0.3951	0.0000	0.0000;
	177	1	0	0	0	0	1	1.10867862	-2.73832892	220	4	1.11	0.95	90.9968	-0.3964	0.0000	0.0000;
	178	1	0	0	0	0	1	1.11	-2.94996899	220	4	1.11	0.95	91.1271	-0.6888	735.8511	0.0000;
	179	1	0	0	0	0	1	1.11	-2.94996899	220	4	1.11	0.95	91.1270	-0.6902	735.8511	0.0000;
	180	2	3.13	1.5	0	0	1	1.11	-3.31289482	220	4	1.11	0.95	91.8685	-1.4638	3217.2740	0.0000;
	181	1	0	0	0	0	1	1.09767668	-5.05130972	220	4	1.11	0.95	92.8482	-0.3246	0.0000	0.0000;
	182	1	0	0	0	0	1	1.09296525	-10.2568107	220	5	1.11	0.95	95.3721	0.0219	0.0000	0.0000;
	183	1	0	0	0	0	1	1.10125139	-14.2657711	220	5	1.11	0.95	96.9199	-0.0372	0.0000	0.0000;
	184	1	0	0	0	0	1	1.03509697	-13.8811431	400	5	1.05	0.95	96.6850	0.0116	0.0000	0.0000;
	185	1	0	0	0	0	1	1.03511055	-13.8726218	400	5	1.05	0.95	96.6813	0.0116	0.0000	0.0000;
	186	1	0	0	0	0	1	1.03630578	-16.7672934	400	5	1.05	0.95	97.8480	-0.0438	0.0000	0.0000;
	187	1	0	0	0	0	1	1.03632878	-16.7717659	400	5	1.05	0.95	97.8503	-0.0442	0.0000	0.0000;
	188	1	0	0	0	0	1	1.10088306	-15.5564155	220	5	1.11	0.95	98.0367	-0.0522	0.0000	0.0000;
	189	1	0	0	0	0	1	1.10090572	-15.5577438	220	5	1.11	0.95	98.0370	-0.0527	0.0000	0.0000;
	190	1	0	0	0	0	1	1.0998252	-10.8900458	220	5	1.11	0.95	96.0886	-0.0443	0.0000	0.0000;
	191	1	0	0	0	0	1	1.09980484	-10.8940081	220	5	1.11	0.95	96.0891	-0.0443	0.0000	0.0000;
	192	1	0	0	0	0	1	1.02566462	-12.7112252	400	5	1.05	0.95	96.0038	0.0942	0.0000	0.0000;
	193	1	0	0	0	0	1	1.09343748	-9.82025435	220	5	1.11	0.95	95.2913	0.0362	0.0000	0.0000;
	194	1	0	0	0	0	1	1.09343509	-9.81585205	220	5	1.11	0.95	95.2912	0.0361	0.0000	0.0000;
	195	1	0	0	0	0	1	1.04343054	-16.5350513	400	5	1.05	0.95	97.9813	-0.1267	0.0000	0.0000;
	196	1	0	0	0	0	1	1.04342714	-16.5343495	400	5	1.05	0.95	97.9816	-0.1266	0.0000	0.0000;
	197	1	0	0	0	0	1	1.07143543	-13.5752762	220	5	1.11	0.95	97.5231	-0.0378	0.0000	0.0000;
	198	1	0	0	0	0	1	1.0714218	-13.5749401	220	5	1.11	0.95	97.5218	-0.0378	0.0000	0.0000;
	199	1	0	0	0	-117	1	1.02691753	-15.7786771	400	5	1.05	0.95	97.3873	0.1130	0.0000	0.0000;
	200	1	0	0	0	0	1	1.02696313	-15.7710079	400	5	1.05	0.95	97.3841	0.1124	0.0000	0.0000;
	201	1	0	0	0	0	1	1.08792195	-10.5815469	220	5	1.11	0.95	96.0849	0.0556	0.0000	0.0000;
	202	1	0	0	0	0	1	1.0878883	-10.5778432	220	5	1.11	0.95	96.0837	0.0556	0.0000	0.0000;
	203	1	0	0	0	0	1	1.08049853	-9.13693304	220	5	1.11	0.95	95.3732	0.1456	0.0000	0.0000;
	204	1	0	0	0	0	1	1.0804901	-9.14486948	220	5	1.11	0.95	95.3770	0.1457	0.0000	0.0000;
	205	2	400	60	0	0	1	1.03216802	-17.737588	400	5	1.05	0.95	98.1324	-0.0000	0.0000	0.0000;
	206	1	0	0	0	0	1	1.03219835	-17.7337875	400	5	1.05	0.95	98.1311	-0.0004	0.0000	0.0000;
	207	1	0	0	0	0	1	1.10425246	-14.7508146	220	5	1.11	0.95	97.3792	-0.2064	0.0000	0.0000;
	208	1	0	0	0	0	1	1.1042504	-14.7543456	220	5	1.11	0.95	97.3789	-0.2058	0.0000	0.0000;
	209	1	8.114	2	0	0	1	1.06349097	-9.14854656	110	1	1.12	0.95	95.2411	-0.6731	0.0000	0.0000;
	210	1	2.705	0.5	0	0	1	1.05949339	-14.8105542	110	1	1.12	0.95	98.4292	-0.5282	0.0000	0.0000;
	211	1	2.705	2	0	0	1	1.06794098	-8.52308904	110	1	1.12	0.95	93.3846	-0.2348	0.0000	0.0000;
	212	1	4.688	4.6	0	0	1	1.0442823	-10.0050277	110	1	1.12	0.95	95.9700	0.4852	0.0000	0.0000;
	213	1	1.623	0.4	0	0	1	1.05679159	1.56781054	110	1	1.12	0.95	90.0861	0.0070	0.0000	0.0000;
	214	1	1.172	0.3	0	0	1	1.05844006	0.808890494	110	1	1.12	0.95	89.8851	0.3486	0.0000	0.0000;
	215	2	6	8.8	0	0	1	1.08048469	-9.13244917	110	1	1.12	0.95	93.5787	-0.9251	0.0000	0.0000;
	216	1	4.959	0.5	0	0	1	1.0823015	-9.03239209	110	1	1.12	0.95	93.4599	-1.0297	0.0000	0.0000;
	217	1	4.057	1	0	0	1	1.08174546	-9.06802596	110	1	1.12	0.95	93.4992	-1.0019	0.0000	0.0000;
	218	1	6.762	1.5	0	0	1	1.08024637	-9.24305471	110	1	1.12	0.95	93.6652	-0.9219	0.0000	0.0000;
	219	1	5.139	2.8	0	0	1	1.05952274	-9.45444624	110	1	1.12	0.95	94.8255	0.1547	0.0000	0.0000;
	220	1	5.41	1.5	0	0	1	1.05833825	-9.57083465	110	1	1.12	0.95	94.6651	0.0250	0.0000	0.0000;
	221	2	0	0	0	0	1	1.11045282	-4.84498038	110	1	1.12	0.95	91.8038	-0.2339	0.0000	0.0000;
	222	2	4.237	1.7	0	0	1	1.09951511	-2.75659908	110	1	1.12	0.95	91.9287	-0.0000	0.0000	0.0000;
	223	1	6.311	1.4	0	0	1	1.06678806	-9.04206571	110	1	1.12	0.95	93.8974	-0.1681	0.0000	0.0000;
	224	1	0.721	0.1	0	0	1	1.0508118	0.341814638	110	1	1.12	0.95	90.9410	0.0108	0.0000	0.0000;
	225	1	2.074	0.4	0	0	1	1.07280317	-10.8648887	110	1	1.12	0.95	95.1780	-0.0103	0.0000	0.0000;
	226	1	1.803	0	0	0	1	1.06577331	-12.5672961	110	1	1.12	0.95	96.6145	-0.3637	0.0000	0.0000;
	227	1	7.664	1.5	0	0	1	1.07605386	-9.22837452	110	1	1.12	0.95	94.3685	-1.0788	0.0000	0.0000;
	228	1	2.524	1	0	0	1	1.06706686	-9.19281327	110	1	1.12	0.95	93.9936	-0.1114	0.0000	0.0000;
	229	1	3.246	1	0	0	1	1.06709327	-9.18809948	110	1	1.12	0.95	93.9920	-0.1117	0.0000	0.0000;
	230	1	1.533	0.78	0	0	1	1.10512663	-1.74001235	110	1	1.12	0.95	91.1171	0.0802	0.0000	0.0000;
	231	1	1.533	0.78	0	0	1	1.10264815	-2.58496431	110	1	1.12	0.95	91.6353	0.0694	0.0000	0.0000;
	232	1	3.606	1	0	0	1	1.06173185	-9.08423681	110	1	1.12	0.95	94.1417	-0.0360	0.0000	0.0000;
	233	1	3.246	1	0	0	1	1.05849053	0.83379413	110	1	1.12	0.95	89.8619	0.3529	0.0000	0.0000;
	234	1	8.114	0.5	0	0	1	1.06725916	-4.74967535	110	1	1.12	0.95	92.7655	-0.7735	0.0000	0.0000;
	235	1	22.54	23	0	0	1	1.04062694	1.16105532	110	1	1.12	0.95	90.0288	0.5907	0.0000	0.0000;
	236	1	2.975	0.5	0	0	1	1.05976118	-11.9119877	110	1	1.12	0.95	96.7635	-0.0912	0.0000	0.0000;
	237	1	4.057	1.78	0	0	1	1.10650078	-1.62682185	110	1	1.12	0.95	90.7389	0.0568	0.0000	0.0000;
	238	1	2.975	0.6	0	0	1	1.05938752	-11.9506557	110	1	1.12	0.95	96.8212	-0.0960	0.0000	0.0000;
	239	1	2.254	1	0	0	1	1.06307358	-10.2134355	110	1	1.12	0.95	95.3410	-0.2980	0.0000	0.0000;
	240	2	0	0	0	0	1	1.05886588	-10.0659414	110	1	1.12	0.95	95.2496	0.0000	0.0000	0.0000;
	241	1	4.959	0.8	0	0	1	1.06806399	-13.5727379	110	1	1.12	0.95	97.4257	0.0196	0.0000	0.0000;
	242	1	2.074	0.83	0	0	1	1.104272	-2.18592782	110	1	1.12	0.95	91.2035	0.0258	0.0000	0.0000;
	243	1	3.336	0.4	0	0	1	1.11052897	-1.35736306	110	1	1.12	0.95	90.2788	-0.1979	0.0000	0.0000;
	244	1	3.336	0.4	0	0	1	1.1105445	-1.34584895	110	1	1.12	0.95	90.2782	-0.1966	0.0000	0.0000;
	245	1	1.623	1.5	0	0	1	1.06721952	-8.36974389	110	1	1.12	0.95	94.1683	0.0272	0.0000	0.0000;
	246	1	0	0	0	0	1	1.06091046	2.71468753	110	1	1.12	0.95	89.5029	0.0203	0.0000	0.0000;
	247	2	0	5	0	0	1	1.04692297	6.18612784	22	1	1.12	0.95	89.6133	-0.0000	0.0000	0.0000;
	248	1	3.606	1	0	0	1	1.06411803	-13.3401742	110	1	1.12	0.95	97.3156	-0.4681	0.0000	0.0000;
	249	1	1.352	0	0	0	1	1.06443494	-13.8217852	110	1	1.12	0.95	96.7244	-0.2301	0.0000	0.0000;
	250	1	1.352	0	0	0	1	1.06722336	-12.8042345	110	1	1.12	0.95	96.6319	-0.4378	0.0000	0.0000;
	251	1	1.352	0	0	0	1	1.05572401	-15.5796709	110	1	1.12	0.95	100.0113	-0.9170	0.0000	0.0000;
	252	1	1.984	0.3	0	0	1	1.07279878	-9.26276879	110	1	1.12	0.95	93.9364	-0.1242	0.0000	0.0000;
	253	1	9.016	5	0	0	1	1.0606072	-5.91669929	110	1	1.12	0.95	92.5573	-0.1145	0.0000	0.0000;
	254	1	8.565	4	0	0	1	1.06215031	-9.14895433	110	1	1.12	0.95	94.1596	-0.0256	0.0000	0.0000;
	255	1	5.41	1	0	0	1	1.0597902	-15.5244942	110	1	1.12	0.95	98.3925	-0.1980	0.0000	0.0000;
	256	1	7.213	1	0	0	1	1.06839725	-12.2853559	110	1	1.12	0.95	96.1672	-0.5127	0.0000	0.0000;
	257	1	2.254	0	0	0	1	1.06844013	-12.4207557	110	1	1.12	0.95	96.2240	-0.4912	0.0000	0.0000;
	258	1	2.029	0.5	0	0	1	1.05795011	1.92246847	110	1	1.12	0.95	89.9962	0.0107	0.0000	0.0000;
	259	1	2.029	0.5	0	0	1	1.05794534	1.91906896	110	1	1.12	0.95	89.9972	0.0107	0.0000	0.0000;
	260	1	4.418	1.78	0	0	1	1.10047261	-2.16122894	110	1	1.12	0.95	91.5967	0.1802	0.0000	0.0000;
	261	1	2.254	0	0	0	1	1.05615635	-15.7948242	110	1	1.12	0.95	100.2209	-1.0167	0.0000	0.0000;
	262	1	4.869	2.1	0	0	1	1.06706915	-8.96172247	110	1	1.12	0.95	93.8826	-0.2202	0.0000	0.0000;
	263	1	0	0	0	0	1	1.0661953	-8.15385881	110	1	1.12	0.95	93.4911	-0.3451	0.0000	0.0000;
	264	1	0.721	0.8	0	0	1	1.06014767	-12.5662144	110	1	1.12	0.95	97.1166	-0.0250	0.0000	0.0000;
	265	1	19.835	20	0	0	1	1.05854254	2.33281003	110	1	1.12	0.95	89.6591	0.0476	0.0000	0.0000;
	266	1	31.555	33	0	0	1	1.04874672	0.71603821	110	1	1.12	0.95	89.9529	0.5633	0.0000	0.0000;
	267	1	24.344	0.9	0	0	1	1.0632487	2.61820704	110	1	1.12	0.95	89.5490	-0.0823	0.0000	0.0000;
	268	1	0.902	0	0	0	1	1.06197428	-8.92330243	110	1	1.12	0.95	94.0334	-0.0637	0.0000	0.0000;
	269	1	3.967	0.1	0	0	1	1.06918507	-8.72950599	110	1	1.12	0.95	93.9816	-0.2062	0.0000	0.0000;
	270	1	3.336	1.4	0	0	1	1.07351991	-9.22119245	110	1	1.12	0.95	93.8754	-0.0676	0.0000	0.0000;
	271	1	4.508	1	0	0	1	1.07569891	-9.42403842	110	1	1.12	0.95	94.4788	-1.0614	0.0000	0.0000;
	272	1	4.058	0.5	0	0	1	1.05505545	-15.3635064	110	1	1.12	0.95	99.8166	-0.8163	0.0000	0.0000;
	273	1	5.229	1.45	0	0	1	1.06044351	-8.9655212	110	1	1.12	0.95	94.1068	-0.0524	0.0000	0.0000;
	274	1	0.36	0.1	0	0	1	1.05886067	-9.48826928	110	1	1.12	0.95	94.9225	0.1244	0.0000	0.0000;
	275	1	0.09	0.03	0	0	1	1.065819	-9.00295748	110	1	1.12	0.95	93.8205	-0.2323	0.0000	0.0000;
	276	1	0	0	0	0	1	1.06506443	-9.16301162	110	1	1.12	0.95	93.9533	-0.2324	0.0000	0.0000;
	277	1	6.311	3.59	0	0	1	1.11034422	-1.20397849	110	1	1.12	0.95	90.6437	-0.0024	0.0000	0.0000;
	278	1	0	0	0	0	1	1.1062704	-1.75353327	110	1	1.12	0.95	90.7186	-0.0070	0.0000	0.0000;
	279	1	3.606	1.4	0	0	1	1.10136381	-2.65661434	110	1	1.12	0.95	91.7481	-0.0608	0.0000	0.0000;
	280	1	1.352	0.5	0	0	1	1.07584734	-9.63666305	110	1	1.12	0.95	94.1988	-0.7174	0.0000	0.0000;
	281	1	2.705	0	0	0	1	1.06738066	-10.1623202	110	1	1.12	0.95	95.0105	-0.2555	0.0000	0.0000;
	282	1	2.705	1	0	0	1	1.06663512	-9.04186531	110	1	1.12	0.95	93.8136	-0.2750	0.0000	0.0000;
	283	1	3.606	1	0	0	1	1.0656394	-8.64266936	110	1	1.12	0.95	93.9585	-0.4161	0.0000	0.0000;
	284	1	16.229	16	0	0	1	1.03717206	0.561265835	110	1	1.12	0.95	90.1582	0.7328	0.0000	0.0000;
	285	1	40.572	42	0	0	1	1.03689291	0.561742248	110	1	1.12	0.95	90.1631	0.7358	0.0000	0.0000;
	286	1	0.992	0.3	0	0	1	1.06696033	2.51079317	110	1	1.12	0.95	89.5670	-0.3930	0.0000	0.0000;
	287	1	0	0	0	0	1	1.05982431	2.24619215	110	1	1.12	0.95	89.6811	0.0065	0.0000	0.0000;
	288	1	4.779	2.1	0	0	1	1.10992746	-1.12362861	110	1	1.12	0.95	90.6038	0.0392	0.0000	0.0000;
	289	1	4.959	1.2	0	0	1	1.10728005	-1.58360525	110	1	1.12	0.95	91.0231	0.0385	0.0000	0.0000;
	290	1	4.508	1.5	0	0	1	1.06398755	-12.2473063	110	1	1.12	0.95	96.5148	-0.2406	0.0000	0.0000;
	291	1	2.705	1	0	0	1	1.0753932	-10.4022149	110	1	1.12	0.95	94.5424	-0.7427	0.0000	0.0000;
	292	1	2.524	2	0	0	1	1.0600265	-9.65073704	110	1	1.12	0.95	94.8611	-0.0868	0.0000	0.0000;
	293	1	1.443	0.4	0	0	1	1.10500171	-2.95375798	110	1	1.12	0.95	91.9519	0.1368	0.0000	0.0000;
	294	1	9.466	4.2	0	0	1	1.06617144	-8.59338045	110	1	1.12	0.95	93.9055	-0.4283	0.0000	0.0000;
	295	1	7.213	2.5	0	0	1	1.06729539	-8.94930562	110	1	1.12	0.95	93.7753	-0.2485	0.0000	0.0000;
	296	1	2.795	1.13	0	0	1	1.11025212	-1.00553703	110	1	1.12	0.95	90.4976	0.0577	0.0000	0.0000;
	297	1	1.406	1.1	0	0	1	1.0655509	-7.33231632	110	1	1.12	0.95	93.2159	-0.3053	0.0000	0.0000;
	298	1	2.164	0.4	0	0	1	1.06715907	-9.11206458	110	1	1.12	0.95	94.3283	-0.2127	0.0000	0.0000;
	299	1	3.787	0.5	0	0	1	1.10445562	-2.99479356	110	1	1.12	0.95	92.0073	0.1271	0.0000	0.0000;
	300	1	3.606	0.7	0	0	1	1.10533725	-2.20002878	110	1	1.12	0.95	91.3023	-0.0447	0.0000	0.0000;
	301	1	2.885	1.27	0	0	1	1.1048115	-1.76153405	110	1	1.12	0.95	91.1098	0.0917	0.0000	0.0000;
	302	1	4.598	1.85	0	0	1	1.10224539	-2.61115449	110	1	1.12	0.95	91.6673	0.0812	0.0000	0.0000;
	303	1	5.409	1	0	0	1	1.07798811	-9.39375574	110	1	1.12	0.95	94.0095	-0.9100	0.0000	0.0000;
	304	1	0	0	0	0	1	1.10653445	-1.75769192	110	1	1.12	0.95	90.7186	-0.0201	0.0000	0.0000;
	305	1	2.705	1	0	0	1	1.04752803	-0.021325168	110	1	1.12	0.95	91.3750	0.0637	0.0000	0.0000;
	306	1	5.86	2.57	0	0	1	1.11021185	-1.00583971	110	1	1.12	0.95	90.4985	0.0594	0.0000	0.0000;
	307	1	3.877	1.56	0	0	1	1.10430112	-2.16377351	110	1	1.12	0.95	91.1788	0.0275	0.0000	0.0000;
	308	1	5.229	2.11	0	0	1	1.11008852	-1.15368718	110	1	1.12	0.95	90.6141	0.0273	0.0000	0.0000;
	309	1	6.401	2.58	0	0	1	1.10439053	-1.78889209	110	1	1.12	0.95	91.1541	0.1027	0.0000	0.0000;
	310	2	8.934	4.46	0	0	1	1.10653913	-1.64112811	110	1	1.12	0.95	90.8827	0.0518	0.0000	0.0000;
	311	1	0.847	0.56	0	0	1	1.10461498	-1.7733799	110	1	1.12	0.95	91.1451	0.0960	0.0000	0.0000;
	312	2	7.57	3.66	0	0	1	1.10435291	-2.3708279	110	1	1.12	0.95	91.4026	0.0000	0.0000	0.0000;
	313	1	0	0	0	0	1	1.10466135	-1.77149481	110	1	1.12	0.95	91.1262	0.0955	0.0000	0.0000;
	314	2	4.173	2.02	0	0	1	1.11057347	-1.15590768	110	1	1.12	0.95	90.5996	-0.0000	0.0000	0.0000;
	315	1	9.025	4.72	0	0	1	1.10485005	-1.77254985	110	1	1.12	0.95	90.8341	0.0765	0.0000	0.0000;
	316	1	4.418	0.6	0	0	1	1.10470405	-2.83990433	110	1	1.12	0.95	91.8640	0.1124	0.0000	0.0000;
	317	1	1.352	0.5	0	0	1	1.07719894	-9.42235865	110	1	1.12	0.95	94.2667	-1.0500	0.0000	0.0000;
	318	1	2.254	1	0	0	1	1.05752771	-9.93258086	110	1	1.12	0.95	95.1073	0.0452	0.0000	0.0000;
	319	1	2.254	1.25	0	0	1	1.05753557	-10.0399997	110	1	1.12	0.95	95.2394	0.0463	0.0000	0.0000;
	320	1	3.606	1.25	0	0	1	1.05751135	-10.0378762	110	1	1.12	0.95	95.2378	0.0456	0.0000	0.0000;
	321	1	4.057	2	0	0	1	1.06294213	-8.81308487	110	1	1.12	0.95	93.8116	-0.0987	0.0000	0.0000;
	322	1	4.057	1.63	0	0	1	1.11007031	-1.11753081	110	1	1.12	0.95	90.5852	0.0388	0.0000	0.0000;
	323	2	7.213	2.9	0	0	1	1.10997611	-1.22313192	110	1	1.12	0.95	90.6681	0.0090	0.0000	0.0000;
	324	1	4.959	2.5	0	0	1	1.06583451	-10.3852018	110	1	1.12	0.95	95.2635	-0.1998	0.0000	0.0000;
	325	1	6.582	2.89	0	0	1	1.10498082	-1.75714959	110	1	1.12	0.95	90.8270	0.0781	0.0000	0.0000;
	326	1	2.344	0.94	0	0	1	1.10631043	-1.65684486	110	1	1.12	0.95	90.9003	0.0580	0.0000	0.0000;
	327	1	2.344	0.94	0	0	1	1.10586675	-1.68773061	110	1	1.12	0.95	90.9571	0.0684	0.0000	0.0000;
	328	1	5.409	2.5	0	0	1	1.06679982	-10.1759396	110	1	1.12	0.95	95.0451	-0.2154	0.0000	0.0000;
	329	1	7.663	2	0	0	1	1.06375188	-9.39496436	110	1	1.12	0.95	94.6935	-0.1133	0.0000	0.0000;
	330	1	5.139	2.07	0	0	1	1.10584746	-1.68923576	110	1	1.12	0.95	90.9593	0.0688	0.0000	0.0000;
	331	1	3.606	1.4	0	0	1	1.10541045	-2.0545642	110	1	1.12	0.95	91.1640	0.0268	0.0000	0.0000;
	332	1	2.254	0.8	0	0	1	1.10520927	-2.10438402	110	1	1.12	0.95	91.2129	0.0244	0.0000	0.0000;
	333	1	11.451	4.61	0	0	1	1.10932702	-1.26883044	110	1	1.12	0.95	90.7177	0.0266	0.0000	0.0000;
	334	1	6.312	1	0	0	1	1.07660543	-4.17739018	110	1	1.12	0.95	91.2021	-1.3996	0.0000	0.0000;