function mpc = case2746wop
%CASE2746WOP

%% MATPOWER Case Format : Version 2
mpc.version = '2';

%%-----  Power Flow Data  -----%%
%% system MVA base
mpc.baseMVA = 100;

%% bus data
%	bus_i	type	Pd	Qd	Gs	Bs	area	Vm	Va	baseKV	zone	Vmax	Vmin	lam_P	lam_Q	mu_Vmax	mu_Vmin
mpc.bus = [
	1	1	0	0	0	0	1	1.10030788	-5.82086737	220	1	1.11	0.95	91.0821	0.1613	0.0000	0.0000;
	2	1	0	0	0	0	1	1.10397449	-2.52294917	220	1	1.11	0.95	90.2443	0.0982	0.0000	0.0000;
	3	1	0	0	0	0	1	1.07214954	-22.8411334	220	1	1.11	0.95	99.5467	0.0558	0.0000	0.0000;
	4	1	0	0	0	0	1	1.09782492	-8.86699384	220	1	1.11	0.95	92.5423	0.2188	0.0000	0.0000;
	5	1	0	0	0	0	1	1.09785349	-8.87359144	220	1	1.11	0.95	92.5438	0.2185	0.0000	0.0000;
	6	1	0	0	0	0	1	1.07826128	-17.0393218	220	1	1.11	0.95	95.9011	0.0748	0.0000	0.0000;
	7	1	0	0	0	0	1	1.07828775	-17.0357944	220	1	1.11	0.95	95.8983	0.0743	0.0000	0.0000;
	8	1	0	0	0	-50	1	1.02966804	-14.805042	400	1	1.05	0.95	95.4104	-0.1470	0.0000	0.0000;
	9	1	0	0	0	0	1	1.02966611	-14.8073853	400	1	1.05	0.95	95.4122	-0.1465	0.0000	0.0000;
	10	1	0	0	0	0	1	1.07618167	-17.0593901	220	1	1.11	0.95	96.3090	0.1459	0.0000	0.0000;
	11	1	0	0	0	0	1	1.0761154	-17.0729902	220	1	1.11	0.95	96.3114	0.1454	0.0000	0.0000;
	12	1	0	0	0	0	1	1.076125	-17.0657074	220	1	1.11	0.95	96.3081	0.1431	0.0000	0.0000;
	13	1	0	0	0	-50	1	1.02469841	-13.0972311	400	1	1.05	0.95	94.7427	0.1254	0.0000	0.0000;
	14	1	0	0	0	0	1	1.02478277	-13.0916182	400	1	1.05	0.95	94.7400	0.1241	0.0000	0.0000;
	15	1	0	0	0	0	1	1.03905257	-16.1288803	400	1	1.05	0.95	95.2253	-1.3522	0.0000	0.0000;
	16	1	0	0	0	0	1	1.03905257	-16.1288803	400	1	1.05	0.95	95.2253	-1.3522	0.0000	0.0000;
	17	2	2.302	31	0	0	1	1.1000624	-18.8356227	220	1	1.11	0.95	97.2730	-0.0001	0.0000	0.0000;
	18	2	9.7	40	0	0	1	1.10019863	-18.8375703	220	1	1.11	0.95	97.2742	0.0000	0.0000	0.0000;
	19	1	0	0	0	0	1	1.09974274	-8.05905893	220	1	1.11	0.95	92.1758	0.2166	0.0000	0.0000;
	20	1	0	0	0	0	1	1.09973409	-8.05533462	220	1	1.11	0.95	92.1767	0.2169	0.0000	0.0000;
	21	1	0	0	0	0	1	1.09059918	-18.7006703	220	1	1.11	0.95	97.1554	0.0152	0.0000	0.0000;
	22	1	0	0	0	0	1	1.09059918	-18.7006703	220	1	1.11	0.95	97.1554	0.0152	0.0000	0.0000;
	23	1	0	0	0	0	1	1.07645774	-16.9972061	220	1	1.11	0.95	96.2379	0.0722	0.0000	0.0000;
	24	1	0	0	0	0	1	1.10019162	-5.99075462	220	1	1.11	0.95	91.4980	0.1739	0.0000	0.0000;
	25	1	0	0	0	-50	1	1.02077279	-17.6162729	400	1	1.05	0.95	97.1134	0.9930	0.0000	0.0000;
	26	2	28.565	42.054	0	0	1	1.10940729	-5.6337366	220	1	1.11	0.95	90.9786	-0.0000	0.0000	0.0000;
	27	2	85.005	122.06	0	0	1	1.11	-2.29059736	220	1	1.11	0.95	90.1369	-0.0000	1243.4399	0.0000;
	28	3	44.783	80	0	0	1	1.04835675	-4.412957	400	1	1.05	0.95	91.1948	-0.0000	0.0000	0.0000;
	29	2	60.097	90	0	0	1	1.04834525	-4.40376414	400	1	1.05	0.95	91.1900	-0.0017	0.0000	0.0000;
	30	1	0	0	0	0	1	1.08039857	-18.1932544	220	1	1.11	0.95	97.1024	0.1711	0.0000	0.0000;
	31	1	0	0	0	0	1	1.04896887	-5.41180365	400	1	1.05	0.95	91.2216	-0.3184	0.0000	0.0000;
	32	1	0	0	0	0	1	1.07477535	-17.2171767	220	1	1.11	0.95	96.3760	0.1667	0.0000	0.0000;
	33	1	0	0	0	0	1	1.10019521	-5.98988267	220	1	1.11	0.95	91.4978	0.1738	0.0000	0.0000;
	34	1	0	0	0	0	1	1.10008456	-11.7367075	220	1	1.11	0.95	93.7481	0.1881	0.0000	0.0000;
	35	1	0	0	0	0	1	1.09302692	-14.6750604	220	2	1.11	0.95	94.7772	-0.8640	0.0000	0.0000;
	36	1	0	0	0	0	1	1.0813275	-15.09197	220	2	1.11	0.95	95.3321	-0.8150	0.0000	0.0000;
	37	1	0	0	0	0	1	1.09054763	-14.1140245	220	2	1.11	0.95	94.6959	-1.0744	0.0000	0.0000;
	38	1	0	0	0	0	1	1.09052255	-14.116903	220	2	1.11	0.95	94.6974	-1.0740	0.0000	0.0000;
	39	1	0	0	0	0	1	1.08536502	-15.7145583	220	2	1.11	0.95	95.6178	-0.6548	0.0000	0.0000;
	40	1	0	0	0	0	1	1.11	-13.431122	220	2	1.11	0.95	94.1378	-3.4888	20320.7219	0.0000;
	41	1	0	0	0	0	1	1.10990948	-13.434134	220	2	1.11	0.95	94.1398	-3.4750	0.0000	0.0000;
	42	1	0	0	0	0	1	1.026438	-13.4866617	400	2	1.05	0.95	94.2389	-2.4002	0.0000	0.0000;
	43	2	12	0	0	0	1	1.09838338	-13.3322503	220	2	1.11	0.95	94.2458	-0.6868	0.0000	0.0000;
	44	2	24	0	0	0	1	1.09833135	-13.3168415	220	2	1.11	0.95	94.2418	-0.6886	0.0000	0.0000;
	45	2	20	0	0	0	1	1.03256557	-13.1789855	400	2	1.05	0.95	94.5663	-0.5861	0.0000	0.0000;
	46	1	0	0	0	0	1	1.03254074	-13.1810333	400	2	1.05	0.95	94.5658	-0.5864	0.0000	0.0000;
	47	1	0	0	0	0	1	1.10873268	-13.8615574	220	2	1.11	0.95	94.4232	-3.2932	0.0000	0.0000;
	48	1	0	0	0	0	1	1.02847474	-17.1713652	400	2	1.05	0.95	95.6122	-0.6754	0.0000	0.0000;
	49	1	0	0	0	0	1	1.02845069	-17.1770265	400	2	1.05	0.95	95.6147	-0.6744	0.0000	0.0000;
	50	1	0	0	0	0	1	1.0283788	-13.6717286	400	2	1.05	0.95	94.6728	-0.6382	0.0000	0.0000;
	51	1	0	0	0	0	1	1.08546117	-14.8258266	220	2	1.11	0.95	95.0386	-0.6616	0.0000	0.0000;
	52	1	0	0	0	0	1	1.08546048	-14.8226457	220	2	1.11	0.95	95.0386	-0.6610	0.0000	0.0000;
	53	1	0	0	0	0	1	1.03679404	-13.9524406	400	2	1.05	0.95	94.6633	-1.0809	0.0000	0.0000;
	54	1	0	0	0	0	1	1.0368197	-13.9527779	400	2	1.05	0.95	94.6630	-1.0821	0.0000	0.0000;
	55	2	12	0	0	0	1	1.09338096	-13.2397844	220	2	1.11	0.95	94.2789	-1.1715	0.0000	0.0000;
	56	2	12	0	0	0	1	1.09335399	-13.2394906	220	2	1.11	0.95	94.2761	-1.1740	0.0000	0.0000;
	57	2	12	0	0	0	1	1.03993383	-13.5929029	400	2	1.05	0.95	94.4683	-1.2184	0.0000	0.0000;
	58	2	12	0	0	0	1	1.0399188	-13.5976532	400	2	1.05	0.95	94.4700	-1.2194	0.0000	0.0000;
	59	2	170.733	62	0	0	1	1.09052224	-14.3588821	220	2	1.11	0.95	94.7107	-0.7172	0.0000	0.0000;
	60	1	0	0	0	0	1	1.0905854	-14.3548527	220	2	1.11	0.95	94.7089	-0.7176	0.0000	0.0000;
	61	1	0	0	0	0	1	1.10391709	-13.9829247	220	2	1.11	0.95	94.4565	-2.8079	0.0000	0.0000;
	62	1	0	0	0	0	1	1.09720555	-14.1398425	220	2	1.11	0.95	94.7062	-1.2541	0.0000	0.0000;
	63	1	0	0	0	0	1	1.09717668	-14.1415761	220	2	1.11	0.95	94.7065	-1.2500	0.0000	0.0000;
	64	1	0	0	0	0	1	1.03934353	-14.8272385	400	2	1.05	0.95	94.8442	-0.9533	0.0000	0.0000;
	65	1	0	0	0	0	1	1.03930201	-14.8380998	400	2	1.05	0.95	94.8481	-0.9518	0.0000	0.0000;
	66	1	0	0	0	0	1	1.08860463	-14.850104	220	2	1.11	0.95	95.0066	-0.9722	0.0000	0.0000;
	67	1	0	0	0	0	1	1.09001697	-14.7001952	220	2	1.11	0.95	94.9118	-0.9962	0.0000	0.0000;
	68	1	0	0	0	0	1	1.08472991	-14.1342344	220	2	1.11	0.95	94.7338	-0.5649	0.0000	0.0000;
	69	1	0	0	0	0	1	1.09843017	-9.21998412	220	3	1.11	0.95	92.5571	-0.4343	0.0000	0.0000;
	70	1	6.8	0	0	0	1	1.09763771	-14.3998177	220	3	1.11	0.95	94.8493	-0.6607	0.0000	0.0000;
	71	1	11.331	2.43	0	0	1	1.09750819	-14.4076229	220	3	1.11	0.95	94.8540	-0.6590	0.0000	0.0000;
	72	1	0	0	0	0	1	1.09464368	-13.2210255	220	3	1.11	0.95	94.4236	0.0530	0.0000	0.0000;
	73	1	0	0	0	0	1	1.09465547	-13.2055289	220	3	1.11	0.95	94.4181	0.0522	0.0000	0.0000;
	74	1	0	0	0	0	1	1.10516659	-10.7588392	220	3	1.11	0.95	92.8422	-0.0063	0.0000	0.0000;
	75	1	0	0	0	0	1	1.10513928	-10.7638618	220	3	1.11	0.95	92.8443	-0.0063	0.0000	0.0000;
	76	1	0	0	0	0	1	1.09773799	-17.6011819	220	3	1.11	0.95	96.4785	-0.1588	0.0000	0.0000;
	77	1	0	0	0	0	1	1.09770212	-17.6130556	220	3	1.11	0.95	96.4835	-0.1581	0.0000	0.0000;
	78	2	26.999	69.999	0	0	1	1.0964708	-12.1523844	220	3	1.11	0.95	93.8707	-0.0000	0.0000	0.0000;
	79	2	8.999	20.999	0	0	1	1.09787066	-12.7300006	220	3	1.11	0.95	94.1067	-0.1269	0.0000	0.0000;
	80	1	10.085	1.376	0	0	1	1.09317524	-12.5254412	220	3	1.11	0.95	94.2350	0.1608	0.0000	0.0000;
	81	1	0	0	0	0	1	1.09317652	-12.5287843	220	3	1.11	0.95	94.2368	0.1604	0.0000	0.0000;
	82	2	34.999	107.999	0	0	1	1.04439795	-6.48257827	400	3	1.05	0.95	91.2718	-0.2730	0.0000	0.0000;
	83	1	0	0	0	0	1	1.10496153	-10.3084864	220	3	1.11	0.95	92.2221	0.1082	0.0000	0.0000;
	84	1	0	0	0	0	1	1.10265246	-11.3905165	220	3	1.11	0.95	93.1699	0.0061	0.0000	0.0000;
	85	1	0	0	0	0	1	1.10261294	-11.3997672	220	3	1.11	0.95	93.1748	0.0058	0.0000	0.0000;
	86	1	44.148	10.561	0	0	1	1.09841149	-9.29663981	220	3	1.11	0.95	92.5104	-0.3928	0.0000	0.0000;
	87	1	0	0	0	0	1	1.09839854	-9.30177719	220	3	1.11	0.95	92.5121	-0.3927	0.0000	0.0000;
	88	1	0	0	0	0	1	1.09378433	-11.324485	220	3	1.11	0.95	93.2254	0.1169	0.0000	0.0000;
	89	1	0	0	0	0	1	1.09377261	-11.331292	220	3	1.11	0.95	93.2288	0.1172	0.0000	0.0000;
	90	1	0	0	0	0	1	1.10062924	-8.85848637	220	3	1.11	0.95	92.3128	-0.4183	0.0000	0.0000;
	91	1	0	0	0	0	1	1.10063666	-8.85421199	220	3	1.11	0.95	92.3119	-0.4216	0.0000	0.0000;
	92	1	0	0	0	0	1	1.04943448	-6.66809502	400	3	1.05	0.95	91.9133	-0.2191	0.0000	0.0000;
	93	1	0	0	0	0	1	1.04943361	-6.66836585	400	3	1.05	0.95	91.9130	-0.2190	0.0000	0.0000;
	94	1	0	0	0	0	1	1.10180275	-10.7179911	220	3	1.11	0.95	92.6744	0.0146	0.0000	0.0000;
	95	1	0	0	0	0	1	1.10184365	-10.7182085	220	3	1.11	0.95	92.6737	0.0147	0.0000	0.0000;
	96	1	0	0	0	0	1	1.10580602	-10.4969378	220	3	1.11	0.95	92.5404	0.0805	0.0000	0.0000;
	97	1	0	0	0	0	1	1.10580872	-10.4960548	220	3	1.11	0.95	92.5389	0.0805	0.0000	0.0000;
	98	1	17.111	6.317	0	0	1	1.09630183	-12.4420916	220	3	1.11	0.95	93.9450	-0.3262	0.0000	0.0000;
	99	1	0	0	0	0	1	1.09629764	-12.4380369	220	3	1.11	0.95	93.9435	-0.3281	0.0000	0.0000;
	100	1	0	0	0	0	1	1.09767788	-14.3820901	220	3	1.11	0.95	94.8406	-0.6614	0.0000	0.0000;
	101	1	0	0	0	0	1	1.09766701	-14.3838873	220	3	1.11	0.95	94.8412	-0.6601	0.0000	0.0000;
	102	1	0	0	0	0	1	1.09687424	-16.8196229	220	3	1.11	0.95	96.1684	-0.0689	0.0000	0.0000;
	103	1	0	0	0	0	1	1.09682081	-16.8074896	220	3	1.11	0.95	96.1654	-0.0677	0.0000	0.0000;
	104	2	13.999	39.999	0	0	1	1.10586036	-10.7627688	220	3	1.11	0.95	92.7800	-0.0000	0.0000	0.0000;
	105	2	0	0	0	0	1	1.10585954	-10.775414	220	3	1.11	0.95	92.7824	-0.0004	0.0000	0.0000;
	106	2	6.999	17.999	0	0	1	1.09984814	-10.5705313	220	3	1.11	0.95	92.7145	-0.0000	0.0000	0.0000;
	107	2	7.999	14.999	0	0	1	1.09974937	-10.5729697	220	3	1.11	0.95	92.7171	-0.0000	0.0000	0.0000;
	108	1	52.726	17.138	0	0	1	1.09565269	-11.9603987	220	3	1.11	0.95	93.7093	-0.5268	0.0000	0.0000;
	109	1	56.444	10.902	0	0	1	1.0956863	-11.9735937	220	3	1.11	0.95	93.7135	-0.5317	0.0000	0.0000;
	110	1	0	0	0	0	1	1.09390675	-13.5823686	220	3	1.11	0.95	94.7282	-0.0903	0.0000	0.0000;
	111	1	0	0	0	0	1	1.0939245	-11.6392523	220	3	1.11	0.95	93.5805	0.3043	0.0000	0.0000;
	112	1	0	0	0	0	1	1.09393441	-11.6436591	220	3	1.11	0.95	93.5826	0.3037	0.0000	0.0000;
	113	1	0	0	0	0	1	1.09286096	-12.7641768	220	3	1.11	0.95	94.3929	0.1268	0.0000	0.0000;
	114	1	0	0	0	0	1	1.09288666	-12.7596203	220	3	1.11	0.95	94.3901	0.1259	0.0000	0.0000;
	115	1	0	0	0	0	1	1.04009049	-9.19476759	400	3	1.05	0.95	92.5501	-0.1809	0.0000	0.0000;
	116	2	0	0	0	0	1	1.09576738	-12.5007638	220	3	1.11	0.95	94.0349	-0.1170	0.0000	0.0000;
	117	2	7.999	14.999	0	0	1	1.09572698	-12.4911484	220	3	1.11	0.95	94.0326	-0.1165	0.0000	0.0000;
	118	2	5.499	9.999	0	0	1	1.09992379	-13.1792718	220	3	1.11	0.95	94.4855	-0.2633	0.0000	0.0000;
	119	1	0	0	0	0	1	1.09991057	-13.1846237	220	3	1.11	0.95	94.4879	-0.2636	0.0000	0.0000;
	120	1	0	0	0	0	1	1.04297123	-13.5766293	400	3	1.05	0.95	94.4469	-0.9199	0.0000	0.0000;
	121	1	0	0	0	0	1	1.04300745	-13.5694835	400	3	1.05	0.95	94.4437	-0.9203	0.0000	0.0000;
	122	1	0	0	0	0	1	1.04338811	-9.34726288	400	3	1.05	0.95	92.6527	-0.2913	0.0000	0.0000;
	123	1	0	0	0	0	1	1.04342308	-9.34569594	400	3	1.05	0.95	92.6528	-0.2921	0.0000	0.0000;
	124	1	0	0	0	0	1	1.09423247	-13.6120972	220	3	1.11	0.95	94.7768	-0.1069	0.0000	0.0000;
	125	2	19.213	21.474	0	0	1	1.11	-9.75730923	220	3	1.11	0.95	92.2939	0.0000	305.5570	0.0000;
	126	2	30.672	33.602	0	0	1	1.10994826	-9.76545175	220	3	1.11	0.95	92.2996	0.0014	0.0000	0.0000;
	127	2	27.999	65.999	0	0	1	1.04011549	-8.12102168	400	3	1.05	0.95	92.1669	-0.1193	0.0000	0.0000;
	128	1	0	0	0	0	1	1.04011539	-8.1310056	400	3	1.05	0.95	92.1705	-0.1195	0.0000	0.0000;
	129	1	0	0	0	0	1	1.09805017	-9.40362809	220	3	1.11	0.95	92.5582	-0.3905	0.0000	0.0000;
	130	1	0	0	0	0	1	1.09805503	-9.40253435	220	3	1.11	0.95	92.5564	-0.3899	0.0000	0.0000;
	131	1	0	0	0	0	1	1.09932637	-9.22177365	220	3	1.11	0.95	92.4670	-0.3819	0.0000	0.0000;
	132	2	271.999	-62.001	0	0	1	1.09907915	-18.4324037	220	3	1.11	0.95	96.8428	-0.2371	0.0000	0.0000;
	133	2	266.5	-24.8	0	0	1	1.09698411	-18.4171034	220	3	1.11	0.95	96.8418	-0.1871	0.0000	0.0000;
	134	2	14.931	12.88	0	0	1	1.10647027	-13.4984352	220	4	1.11	0.95	94.6140	0.0000	0.0000	0.0000;
	135	2	8.013	6.525	0	0	1	1.10637816	-13.5073229	220	4	1.11	0.95	94.6168	0.0011	0.0000	0.0000;
	136	1	0	0	0	0	1	1.08156841	-16.2592106	220	4	1.11	0.95	95.3071	0.0673	0.0000	0.0000;
	137	1	0	0	0	0	1	1.08455473	-15.757304	220	4	1.11	0.95	95.0163	0.0195	0.0000	0.0000;
	138	1	0	0	0	0	1	1.04503527	-13.3675534	400	4	1.05	0.95	93.9002	-0.5746	0.0000	0.0000;
	139	1	0	0	0	0	1	1.04505796	-13.3636811	400	4	1.05	0.95	93.8977	-0.5758	0.0000	0.0000;
	140	1	0	0	0	0	1	1.10447402	-22.6032019	220	4	1.11	0.95	99.9472	-2.0085	0.0000	0.0000;
	141	1	0	0	0	0	1	1.08451511	-24.9981195	220	4	1.11	0.95	101.9942	-1.4766	0.0000	0.0000;
	142	1	0	0	0	0	1	1.08451511	-24.9981195	220	4	1.11	0.95	101.9942	-1.4766	0.0000	0.0000;
	143	1	0	0	0	0	1	1.08681	-23.5797101	220	4	1.11	0.95	100.4323	-1.3123	0.0000	0.0000;
	144	1	0	0	0	0	1	1.09050136	-14.9270648	220	4	1.11	0.95	93.9021	-0.1467	0.0000	0.0000;
	145	1	0	0	0	0	1	1.09050136	-14.9270648	220	4	1.11	0.95	93.9021	-0.1467	0.0000	0.0000;
	146	2	55.255	6.955	0	0	1	1.1010366	-16.9331082	220	4	1.11	0.95	96.4200	-0.0201	0.0000	0.0000;
	147	2	10.077	8.4	0	0	1	1.10103713	-16.9424652	220	4	1.11	0.95	96.4222	-0.0215	0.0000	0.0000;
	148	2	11.5	6.86	0	0	1	1.08477314	-24.1058865	220	4	1.11	0.95	101.4545	-1.5648	0.0000	0.0000;
	149	1	4.423	1.347	0	0	1	1.084731	-24.1202808	220	4	1.11	0.95	101.4614	-1.5649	0.0000	0.0000;
	150	2	12.633	6.828	0	0	1	1.02094797	-25.8016163	400	4	1.05	0.95	101.8476	-1.7347	0.0000	0.0000;
	151	2	12.397	10.045	0	0	1	1.0209326	-25.8077713	400	4	1.05	0.95	101.8501	-1.7351	0.0000	0.0000;
	152	1	0	0	0	0	1	1.08949396	-22.6657664	220	4	1.11	0.95	100.3547	-1.5498	0.0000	0.0000;
	153	1	0	0	0	0	1	1.08223315	-21.6819677	220	4	1.11	0.95	99.1642	-0.6387	0.0000	0.0000;
	154	1	0	0	0	0	1	1.08226456	-21.6755116	220	4	1.11	0.95	99.1606	-0.6387	0.0000	0.0000;
	155	2	33.593	44.976	0	0	1	1.08912283	-14.0326704	220	4	1.11	0.95	94.1857	-0.0000	0.0000	0.0000;
	156	2	33.832	45.07	0	0	1	1.08898965	-14.0888564	220	4	1.11	0.95	94.4089	-0.0000	0.0000	0.0000;
	157	1	0	0	0	0	1	1.08912283	-14.0326704	220	4	1.11	0.95	94.1857	-0.0000	0.0000	0.0000;
	158	1	0	0	0	0	1	1.03408083	-13.0566596	400	4	1.05	0.95	94.1403	-0.1126	0.0000	0.0000;
	159	2	8.687	17.49	0	0	1	1.03405585	-13.0544383	400	4	1.05	0.95	94.1403	-0.1118	0.0000	0.0000;
	160	1	0	0	0	0	1	1.08423764	-25.0609102	220	4	1.11	0.95	102.0427	-1.6438	0.0000	0.0000;
	161	1	0	0	0	0	1	1.08423764	-25.0609102	220	4	1.11	0.95	102.0427	-1.6438	0.0000	0.0000;
	162	1	0	0	0	0	1	1.05	-12.5799622	400	4	1.05	0.95	93.1611	-2.0075	8241.4853	0.0000;
	163	1	0	0	0	0	1	1.04835581	-11.6532253	400	4	1.05	0.95	92.9843	-0.9509	0.0000	0.0000;
	164	1	0	0	0	0	1	1.04835752	-11.659479	400	4	1.05	0.95	92.9875	-0.9497	0.0000	0.0000;
	165	2	5.495	9.587	0	0	1	1.10076838	-17.1778806	220	4	1.11	0.95	96.5421	-0.0000	0.0000	0.0000;
	166	2	10.099	4.886	0	0	1	1.10071019	-17.194151	220	4	1.11	0.95	96.5514	-0.0000	0.0000	0.0000;
	167	1	14.36	13.623	0	0	1	1.10074002	-17.1791509	220	4	1.11	0.95	96.5425	0.0005	0.0000	0.0000;
	168	1	0	0	0	0	1	1.1079187	-28.1577504	220	4	1.11	0.95	103.3358	-2.2236	0.0000	0.0000;
	169	1	0	0	0	0	1	1.08730375	-25.0949686	220	4	1.11	0.95	102.0453	-1.5179	0.0000	0.0000;
	170	1	0	0	0	0	1	1.11	-23.5893838	220	4	1.11	0.95	100.5547	-2.7767	11500.4569	0.0000;
	171	1	0	0	0	0	1	1.10989701	-23.5885302	220	4	1.11	0.95	100.5555	-2.7651	0.0000	0.0000;
	172	1	0	0	0	0	1	0.963979208	-24.6681966	400	4	1.05	0.95	100.9595	-2.1401	0.0000	0.0000;
	173	1	0	0	0	0	1	0.963979208	-24.6681966	400	4	1.05	0.95	100.9595	-2.1401	0.0000	0.0000;
	174	1	0	0	0	0	1	1.06969676	-20.9736578	220	4	1.11	0.95	99.3659	-0.3418	0.0000	0.0000;
	175	1	0	0	0	0	1	1.06970877	-20.9717311	220	4	1.11	0.95	99.3660	-0.3416	0.0000	0.0000;
	176	1	0	0	0	0	1	1.10824591	-23.8228846	220	4	1.11	0.95	100.6710	-2.6873	0.0000	0.0000;
	177	1	0	0	0	0	1	1.08601222	-15.696934	220	4	1.11	0.95	94.9145	-0.0118	0.0000	0.0000;
	178	1	0	0	0	0	1	1.08604528	-15.6919169	220	4	1.11	0.95	94.9130	-0.0119	0.0000	0.0000;
	179	1	0	0	0	0	1	1.09175615	-14.7013036	220	4	1.11	0.95	94.3309	0.0115	0.0000	0.0000;
	180	1	0	0	0	0	1	1.09175615	-14.7013036	220	4	1.11	0.95	94.3309	0.0115	0.0000	0.0000;
	181	1	0	0	0	0	1	1.0678427	-21.7849143	220	4	1.11	0.95	99.6397	-0.3538	0.0000	0.0000;
	182	1	0	0	0	0	1	1.06385108	-24.767029	220	5	1.11	0.95	101.1163	0.8308	0.0000	0.0000;
	183	1	0	0	0	0	1	1.11	-31.7242659	220	5	1.11	0.95	104.4455	-1.8026	1842.3352	0.0000;
	184	1	0	0	0	0	1	1.02755092	-31.3473809	400	5	1.05	0.95	104.1524	-1.2726	0.0000	0.0000;
	185	1	0	0	0	0	1	1.02755358	-31.3403873	400	5	1.05	0.95	104.1489	-1.2735	0.0000	0.0000;
	186	1	0	0	0	0	1	1.01791284	-33.6656131	400	5	1.05	0.95	105.1111	0.3103	0.0000	0.0000;
	187	1	0	0	0	0	1	1.01793562	-33.6732104	400	5	1.05	0.95	105.1150	0.3088	0.0000	0.0000;
	188	1	0	0	0	0	1	1.07790172	-31.8824779	220	5	1.11	0.95	105.5366	-0.0610	0.0000	0.0000;
	189	1	0	0	0	0	1	1.07795298	-31.8859041	220	5	1.11	0.95	105.5372	-0.0632	0.0000	0.0000;
	190	1	0	0	0	0	1	1.0608216	-26.8593233	220	5	1.11	0.95	102.4076	1.1809	0.0000	0.0000;
	191	1	0	0	0	0	1	1.06087232	-26.8571245	220	5	1.11	0.95	102.4063	1.1794	0.0000	0.0000;
	192	1	0	0	0	0	1	1.00608213	-26.382212	400	5	1.05	0.95	101.8017	1.2120	0.0000	0.0000;
	193	1	0	0	0	0	1	1.06937592	-24.3646022	220	5	1.11	0.95	100.9068	0.8353	0.0000	0.0000;
	194	1	0	0	0	0	1	1.06936735	-24.3617905	220	5	1.11	0.95	100.9069	0.8360	0.0000	0.0000;
	195	1	0	0	0	0	1	1.01837639	-32.8064236	400	5	1.05	0.95	104.9591	0.3684	0.0000	0.0000;
	196	1	0	0	0	0	1	1.01835711	-32.804104	400	5	1.05	0.95	104.9586	0.3689	0.0000	0.0000;
	197	1	0	0	0	0	1	1.06922148	-26.7133186	220	5	1.11	0.95	103.0262	0.7489	0.0000	0.0000;
	198	1	0	0	0	0	1	1.06918479	-26.7064226	220	5	1.11	0.95	103.0216	0.7497	0.0000	0.0000;
	199	1	0	0	0	0	1	1.02663626	-32.8831755	400	5	1.05	0.95	104.7758	-0.7574	0.0000	0.0000;
	200	1	0	0	0	0	1	1.02666451	-32.8701904	400	5	1.05	0.95	104.7707	-0.7596	0.0000	0.0000;
	201	1	0	0	0	0	1	1.05040536	-26.5648309	220	5	1.11	0.95	102.9701	1.4276	0.0000	0.0000;
	202	1	0	0	0	0	1	1.05038692	-26.5588757	220	5	1.11	0.95	102.9691	1.4279	0.0000	0.0000;
	203	1	0	0	0	0	1	1.05203942	-24.1433747	220	5	1.11	0.95	101.7821	1.3930	0.0000	0.0000;
	204	1	0	0	0	0	1	1.05196509	-24.1572131	220	5	1.11	0.95	101.7891	1.3945	0.0000	0.0000;
	205	2	619.912	0	0	0	1	1.0176283	-35.9546562	400	5	1.05	0.95	105.9247	-0.0002	0.0000	0.0000;
	206	2	205.255	0	0	0	1	1.01767481	-35.9529638	400	5	1.05	0.95	105.9237	0.0000	0.0000	0.0000;
	207	1	0	0	0	0	1	1.1006632	-32.1131142	220	5	1.11	0.95	105.0027	-1.5753	0.0000	0.0000;
	208	1	0	0	0	0	1	1.10067105	-32.1162269	220	5	1.11	0.95	105.0026	-1.5742	0.0000	0.0000;
	209	1	5.821	1.5	0	0	1	1.08934842	-19.6052199	110	1	1.12	0.95	97.9429	-1.5191	0.0000	0.0000;
	210	1	4.366	0.5	0	0	1	1.07743709	-27.0976268	110	1	1.12	0.95	103.2721	0.2770	0.0000	0.0000;
	211	1	7.761	2	0	0	1	1.09442354	-18.446065	110	1	1.12	0.95	96.0418	0.2330	0.0000	0.0000;
	212	1	6.306	5.6	0	0	1	1.04386479	-21.680316	110	1	1.12	0.95	101.0624	1.8822	0.0000	0.0000;
	213	1	2.523	0.6	0	0	1	1.06907059	-5.12767359	110	1	1.12	0.95	91.0846	0.2532	0.0000	0.0000;
	214	1	4.851	1.3	0	0	1	1.08305163	-7.6261378	110	1	1.12	0.95	91.6386	0.2879	0.0000	0.0000;
	215	2	19.194	8	0	0	1	1.11822498	-17.85278	110	1	1.12	0.95	94.4174	-2.1684	0.0000	0.0000;
	216	1	14.553	1.5	0	0	1	1.11747456	-18.0466008	110	1	1.12	0.95	94.6231	-2.3597	0.0000	0.0000;
	217	1	4.851	1	0	0	1	1.11753923	-18.0100851	110	1	1.12	0.95	94.5841	-2.3101	0.0000	0.0000;
	218	1	4.851	1	0	0	1	1.11709808	-18.1215283	110	1	1.12	0.95	94.6448	-2.1324	0.0000	0.0000;
	219	2	8.247	1.6	0	0	1	1.07950602	-21.2502561	110	1	1.12	0.95	99.1533	0.2079	0.0000	0.0000;
	220	1	5.822	1.5	0	0	1	1.08324695	-19.5750373	110	1	1.12	0.95	97.4148	0.5109	0.0000	0.0000;
	221	2	0	0	0	0	1	1.07221174	-16.6123654	110	1	1.12	0.95	93.9188	-1.0279	0.0000	0.0000;
	222	2	6.306	1.5	0	0	1	1.09468783	-11.8252992	110	1	1.12	0.95	94.1444	-0.3531	0.0000	0.0000;
	223	2	15.523	2.6	0	0	1	1.08511117	-20.5467716	110	1	1.12	0.95	97.7350	0.3478	0.0000	0.0000;
	224	1	1.649	0.4	0	0	1	1.05372566	-7.05314467	110	1	1.12	0.95	92.5355	0.3832	0.0000	0.0000;
	225	1	2.425	0.2	0	0	1	1.07538025	-23.1183625	110	1	1.12	0.95	99.5520	1.1084	0.0000	0.0000;
	226	1	2.911	0.5	0	0	1	1.0959871	-23.6282478	110	1	1.12	0.95	99.4881	-0.3913	0.0000	0.0000;
	227	1	10.672	0.499	0	0	1	1.10654517	-19.0005469	110	1	1.12	0.95	96.3185	-2.3863	0.0000	0.0000;
	228	1	6.791	2	0	0	1	1.0816354	-21.0256752	110	1	1.12	0.95	98.0845	0.4683	0.0000	0.0000;
	229	2	2.231	1.05	0	0	1	1.10685147	-11.727569	110	1	1.12	0.95	93.6541	0.1459	0.0000	0.0000;
	230	2	2.231	1.05	0	0	1	1.10724346	-11.7320862	110	1	1.12	0.95	93.6509	0.1334	0.0000	0.0000;
	231	1	11.642	6	0	0	1	1.07722062	-20.7639148	110	1	1.12	0.95	98.3126	0.6455	0.0000	0.0000;
	232	1	4.366	1	0	0	1	1.08402072	-7.52123644	110	1	1.12	0.95	91.5283	0.2704	0.0000	0.0000;
	233	1	8.732	1	0	0	1	1.07217055	-14.8673119	110	1	1.12	0.95	95.3352	-0.9121	0.0000	0.0000;
	234	1	16.493	14	0	0	1	1.06852123	-5.79982024	110	1	1.12	0.95	91.0128	0.4646	0.0000	0.0000;
	235	1	3.978	0.5	0	0	1	1.0770998	-23.6164662	110	1	1.12	0.95	100.5633	0.2170	0.0000	0.0000;
	236	1	8.926	3.64	0	0	1	1.11105575	-11.0895005	110	1	1.12	0.95	92.7686	0.0938	0.0000	0.0000;
	237	1	4.463	0.3	0	0	1	1.07645156	-23.6575398	110	1	1.12	0.95	100.6201	0.2113	0.0000	0.0000;
	238	1	5.821	1	0	0	1	1.08815333	-20.9977089	110	1	1.12	0.95	98.2623	-0.8112	0.0000	0.0000;
	239	2	4.305	1.175	0	0	1	1.07504879	-21.2502127	110	1	1.12	0.95	99.0123	0.4637	0.0000	0.0000;
	240	1	7.471	1	0	0	1	1.06151031	-27.490732	110	1	1.12	0.95	103.2655	1.0625	0.0000	0.0000;
	241	1	4.463	1.67	0	0	1	1.1110361	-11.2783721	110	1	1.12	0.95	93.0454	0.0895	0.0000	0.0000;
	242	1	6.791	0.7	0	0	1	1.11777358	-8.76852368	110	1	1.12	0.95	90.5397	-2.1618	0.0000	0.0000;
	243	1	0	0	0	0	1	1.11785964	-8.74650175	110	1	1.12	0.95	90.5395	-2.1707	0.0000	0.0000;
	244	1	2.231	1.4	0	0	1	1.09093137	-18.5956311	110	1	1.12	0.95	96.5526	0.0295	0.0000	0.0000;
	245	1	0	0	0	0	1	1.07827131	-3.61893422	110	1	1.12	0.95	90.2429	0.1584	0.0000	0.0000;
	246	2	1.982	5	0	0	1	1.0854168	-0.300018175	22	1	1.12	0.95	90.5107	0.0000	0.0000	0.0000;
	247	1	6.792	1.5	0	0	1	1.09289579	-24.6934553	110	1	1.12	0.95	100.9181	-0.2698	0.0000	0.0000;
	248	1	1.94	0.5	0	0	1	1.09274723	-25.4597039	110	1	1.12	0.95	100.1015	0.2659	0.0000	0.0000;
	249	1	1.94	0.5	0	0	1	1.10119758	-23.8214818	110	1	1.12	0.95	99.6431	-0.4726	0.0000	0.0000;
	250	1	2.911	0.5	0	0	1	1.06255414	-28.4839388	110	1	1.12	0.95	106.4556	0.1660	0.0000	0.0000;
	251	1	2.814	0.5	0	0	1	1.08433744	-20.8503859	110	1	1.12	0.95	97.7570	0.6948	0.0000	0.0000;
	252	1	10.672	7	0	0	1	1.07283592	-16.1329327	110	1	1.12	0.95	95.3930	0.6749	0.0000	0.0000;
	253	1	21.345	5	0	0	1	1.07647041	-20.9890605	110	1	1.12	0.95	98.4553	0.6460	0.0000	0.0000;
	254	1	8.732	2	0	0	1	1.06808658	-28.6896252	110	1	1.12	0.95	103.6258	0.7823	0.0000	0.0000;
	255	1	18.433	1	0	0	1	1.10018533	-23.0984311	110	1	1.12	0.95	98.9928	-0.7356	0.0000	0.0000;
	256	1	3.396	0.5	0	0	1	1.10073374	-23.2806313	110	1	1.12	0.95	99.0652	-0.6459	0.0000	0.0000;
	257	1	2.425	0.35	0	0	1	1.07094299	-4.87406125	110	1	1.12	0.95	91.2126	0.3068	0.0000	0.0000;
	258	1	2.425	0.35	0	0	1	1.07088265	-4.88428192	110	1	1.12	0.95	91.2160	0.3077	0.0000	0.0000;
	259	1	6.791	2.54	0	0	1	1.10012616	-12.2865001	110	1	1.12	0.95	94.3196	0.3111	0.0000	0.0000;
	260	1	4.851	1	0	0	1	1.06063896	-28.8693497	110	1	1.12	0.95	106.9271	0.1416	0.0000	0.0000;
	261	1	2.134	0.5	0	0	1	1.09952739	-18.7272623	110	1	1.12	0.95	96.3282	0.0163	0.0000	0.0000;
	262	1	7.276	1.6	0	0	1	1.08642264	-18.3975533	110	1	1.12	0.95	96.6641	0.2268	0.0000	0.0000;
	263	1	0.776	0.5	0	0	1	1.07283746	-24.8147518	110	1	1.12	0.95	101.2281	0.3816	0.0000	0.0000;
	264	1	41.719	37	0	0	1	1.07602291	-4.05145	110	1	1.12	0.95	90.3854	0.1906	0.0000	0.0000;
	265	1	43.66	40	0	0	1	1.07670803	-7.23976631	110	1	1.12	0.95	91.3276	0.4169	0.0000	0.0000;
	266	1	2.911	1	0	0	1	1.08183647	-20.28003	110	1	1.12	0.95	97.8752	0.5134	0.0000	0.0000;
	267	1	8.247	0.7	0	0	1	1.08018178	-21.1790149	110	1	1.12	0.95	98.4373	0.0634	0.0000	0.0000;
	268	1	5.336	1.1	0	0	1	1.08464736	-20.7340739	110	1	1.12	0.95	97.6040	0.8005	0.0000	0.0000;
	269	1	7.761	1.5	0	0	1	1.10757841	-19.0368498	110	1	1.12	0.95	96.2166	-2.3508	0.0000	0.0000;
	270	1	5.821	1.5	0	0	1	1.06422238	-28.0931662	110	1	1.12	0.95	106.0150	0.1925	0.0000	0.0000;
	271	1	10.672	2.75	0	0	1	1.08227194	-19.1552534	110	1	1.12	0.95	96.9236	0.5809	0.0000	0.0000;
	272	1	0.098	0	0	0	1	1.08052667	-20.8000143	110	1	1.12	0.95	98.9849	0.2876	0.0000	0.0000;
	273	1	0.097	0.03	0	0	1	1.10068878	-18.1150833	110	1	1.12	0.95	95.7498	0.0690	0.0000	0.0000;
	274	1	0.097	0.03	0	0	1	1.09310675	-18.70476	110	1	1.12	0.95	96.4486	0.2694	0.0000	0.0000;
	275	1	7.451	3.94	0	0	1	1.10877131	-10.5380598	110	1	1.12	0.95	92.5391	0.2951	0.0000	0.0000;
	276	1	4.967	2.63	0	0	1	1.11323346	-11.0022953	110	1	1.12	0.95	92.6160	0.0673	0.0000	0.0000;
	277	1	5.239	1.2	0	0	1	1.09787935	-11.5871702	110	1	1.12	0.95	93.7451	-0.4216	0.0000	0.0000;
	278	1	1.94	0	0	0	1	1.10925025	-19.0106346	110	1	1.12	0.95	95.6664	-1.6098	0.0000	0.0000;
	279	1	5.336	0	0	0	1	1.09430605	-20.431965	110	1	1.12	0.95	97.4108	-0.5514	0.0000	0.0000;
	280	1	10.672	3	0	0	1	1.09391627	-18.6796976	110	1	1.12	0.95	96.5083	0.2289	0.0000	0.0000;
	281	1	7.761	1	0	0	1	1.07164273	-19.8815759	110	1	1.12	0.95	97.8830	0.5719	0.0000	0.0000;
	282	1	22.314	21	0	0	1	1.06828758	-6.85890161	110	1	1.12	0.95	91.3331	0.5188	0.0000	0.0000;
	283	1	15.524	13	0	0	1	1.06815859	-6.83678143	110	1	1.12	0.95	91.3306	0.5190	0.0000	0.0000;
	284	1	7.762	3.17	0	0	1	1.10745037	-10.398761	110	1	1.12	0.95	92.4750	0.3607	0.0000	0.0000;
	285	1	10.672	1.6	0	0	1	1.1037531	-11.2792504	110	1	1.12	0.95	93.2925	0.3369	0.0000	0.0000;
	286	1	5.821	0.5	0	0	1	1.09117272	-23.3161835	110	1	1.12	0.95	99.2069	-0.2828	0.0000	0.0000;
	287	1	3.396	0	0	0	1	1.11073036	-19.9479233	110	1	1.12	0.95	96.0490	-1.5987	0.0000	0.0000;
	288	1	2.425	0.5	0	0	1	1.07445631	-20.7487705	110	1	1.12	0.95	98.5949	0.5231	0.0000	0.0000;
	289	1	2.425	0.6	0	0	1	1.09955463	-14.110742	110	1	1.12	0.95	95.5504	0.2132	0.0000	0.0000;
	290	1	16.008	6	0	0	1	1.07252208	-19.7724172	110	1	1.12	0.95	97.7617	0.5587	0.0000	0.0000;
	291	2	9.702	1	0	0	1	1.10062	-18.5416152	110	1	1.12	0.95	96.1034	0.0000	0.0000	0.0000;
	292	1	5.239	1.96	0	0	1	1.10748372	-10.1998058	110	1	1.12	0.95	92.2991	0.3831	0.0000	0.0000;
	293	1	1.94	1.3	0	0	1	1.079344	-18.7456325	110	1	1.12	0.95	97.0693	0.0521	0.0000	0.0000;
	294	2	4.657	0.8	0	0	1	1.07931208	-21.5376494	110	1	1.12	0.95	98.9029	0.0238	0.0000	0.0000;
	295	1	6.209	0.9	0	0	1	1.10009071	-13.8870655	110	1	1.12	0.95	95.3511	0.2192	0.0000	0.0000;
	296	1	3.881	2	0	0	1	1.10565262	-10.8871186	110	1	1.12	0.95	92.8141	-0.7593	0.0000	0.0000;
	297	1	7.276	2.97	0	0	1	1.10454944	-11.7834628	110	1	1.12	0.95	93.7211	0.2340	0.0000	0.0000;
	298	1	9.8	3.67	0	0	1	1.10603574	-11.7963043	110	1	1.12	0.95	93.7336	0.1733	0.0000	0.0000;
	299	2	9.702	3.5	0	0	1	1.10607759	-19.1930639	110	1	1.12	0.95	95.9571	-1.9475	0.0000	0.0000;
	300	1	0	0	0	0	1	1.11349918	-11.0064539	110	1	1.12	0.95	92.6160	0.0538	0.0000	0.0000;
	301	1	3.881	0.5	0	0	1	1.04917584	-7.67832408	110	1	1.12	0.95	93.2890	0.4137	0.0000	0.0000;
	302	1	8.15	3.33	0	0	1	1.10751254	-10.1952662	110	1	1.12	0.95	92.2945	0.3830	0.0000	0.0000;
	303	1	9.605	3.59	0	0	1	1.11091377	-11.2764677	110	1	1.12	0.95	93.0394	0.0968	0.0000	0.0000;
	304	1	13.291	4.97	0	0	1	1.10889024	-10.4103435	110	1	1.12	0.95	92.4485	0.3156	0.0000	0.0000;
	305	1	14.844	5.55	0	0	1	1.10513727	-11.7929341	110	1	1.12	0.95	93.7280	0.2053	0.0000	0.0000;
	306	2	78.068	52.19	0	0	1	1.10190972	-11.6420431	110	1	1.12	0.95	93.5706	0.3820	0.0000	0.0000;
	307	2	52.074	20.97	0	0	1	1.1066353	-11.7210559	110	1	1.12	0.95	93.6448	0.1561	0.0000	0.0000;
	308	2	18.922	9.47	0	0	1	1.11292971	-11.2482348	110	1	1.12	0.95	93.0349	0.0000	0.0000	0.0000;
	309	1	0	0	0	0	1	1.10476768	-11.7871007	110	1	1.12	0.95	93.7236	0.2229	0.0000	0.0000;
	310	2	36.737	19.74	0	0	1	1.11056494	-10.3816572	110	1	1.12	0.95	92.3687	0.2463	0.0000	0.0000;
	311	2	29.633	16.42	0	0	1	1.11350756	-11.0850984	110	1	1.12	0.95	92.7037	0.0000	0.0000	0.0000;
	312	1	8.053	0.8	0	0	1	1.10347807	-13.0430496	110	1	1.12	0.95	94.6399	0.1844	0.0000	0.0000;
	313	1	1.94	0	0	0	1	1.11175699	-18.8180822	110	1	1.12	0.95	95.6343	-2.3542	0.0000	0.0000;
	314	1	0.97	0.501	0	0	1	1.07674783	-20.6811613	110	1	1.12	0.95	98.5266	0.5347	0.0000	0.0000;
	315	1	5.578	0.75	0	0	1	1.07459295	-21.0809643	110	1	1.12	0.95	98.9149	0.5326	0.0000	0.0000;
	316	1	8.489	1.25	0	0	1	1.07460086	-21.0703145	110	1	1.12	0.95	98.9120	0.5330	0.0000	0.0000;
	317	1	12.419	3	0	0	1	1.08597896	-18.9646207	110	1	1.12	0.95	96.6193	0.4918	0.0000	0.0000;
	318	1	6.694	2.5	0	0	1	1.1083576	-10.3602422	110	1	1.12	0.95	92.4150	0.3420	0.0000	0.0000;
	319	2	12.03	4.5	0	0	1	1.10824046	-10.5688854	110	1	1.12	0.95	92.5769	0.3063	0.0000	0.0000;
	320	1	10.672	2.5	0	0	1	1.09250765	-20.748008	110	1	1.12	0.95	97.7770	-0.4254	0.0000	0.0000;
	321	1	11.642	4.75	0	0	1	1.11264206	-11.1113395	110	1	1.12	0.95	92.7415	0.0299	0.0000	0.0000;
	322	1	11.613	4.74	0	0	1	1.10069758	-11.7194563	110	1	1.12	0.95	93.6623	0.4188	0.0000	0.0000;
	323	1	4.977	2.03	0	0	1	1.10208967	-11.7097459	110	1	1.12	0.95	93.6451	0.3592	0.0000	0.0000;
	324	1	9.702	2.5	0	0	1	1.09336069	-20.4989494	110	1	1.12	0.95	97.5004	-0.4685	0.0000	0.0000;
	325	1	14.553	3	0	0	1	1.07355456	-21.675075	110	1	1.12	0.95	99.5447	0.4433	0.0000	0.0000;
	326	1	8.926	3.34	0	0	1	1.10210874	-11.7115914	110	1	1.12	0.95	93.6469	0.3583	0.0000	0.0000;
	327	1	5.336	1	0	0	1	1.10595886	-11.3305728	110	1	1.12	0.95	93.1319	-0.1791	0.0000	0.0000;
	328	1	2.911	0.6	0	0	1	1.10556141	-11.3496144	110	1	1.12	0.95	93.1638	-0.2111	0.0000	0.0000;
	329	1	38.225	14.3	0	0	1	1.10573607	-10.7402009	110	1	1.12	0.95	92.7735	0.3805	0.0000	0.0000;
	330	1	11.643	1	0	0	1	1.08602873	-16.2343211	110	1	1.12	0.95	95.3430	-0.3079	0.0000	0.0000;
	331	1	0	0	0	0	1	1.10046788	-12.295772	110	1	1.12	0.95	94.3197	0.2806	0.0000	0.0000;
	332	1	6.791	2	0	0	1	1.07245182	-21.743303	110	1	1.12	0.95	99.6752	0.4795	0.0000	0.0000;