function mpc = case3012wp
%CASE3012WP

%% MATPOWER Case Format : Version 2
mpc.version = '2';

%%-----  Power Flow Data  -----%%
%% system MVA base
mpc.baseMVA = 100;

%% bus data
%	bus_i	type	Pd	Qd	Gs	Bs	area	Vm	Va	baseKV	zone	Vmax	Vmin	lam_P	lam_Q	mu_Vmax	mu_Vmin
mpc.bus = [
	1	1	0	0	0	0	1	1.10684702	-0.312087364	220	1	1.11	0.95	139.1283	0.1415	0.0000	0.0000;
	2	1	0	0	0	0	1	1.10783391	1.36157736	220	1	1.11	0.95	138.5224	0.1032	0.0000	0.0000;
	3	1	0	0	0	0	1	1.06178803	-29.4799043	220	1	1.11	0.95	171.4264	-1.0675	0.0000	0.0000;
	4	1	0	0	0	0	1	1.06172812	-29.4892057	220	1	1.11	0.95	171.4422	-1.0671	0.0000	0.0000;
	5	1	0	0	0	0	1	1.07261567	-31.9040744	220	1	1.11	0.95	175.8341	-2.6827	0.0000	0.0000;
	6	1	0	0	0	0	1	1.075247	-5.90776678	220	1	1.11	0.95	144.4851	1.5872	0.0000	0.0000;
	7	1	0	0	0	0	1	1.07522682	-5.90901409	220	1	1.11	0.95	144.4801	1.5802	0.0000	0.0000;
	8	1	0	0	0	0	1	1.08154529	-17.8715684	220	1	1.11	0.95	138.9515	0.2176	0.0000	0.0000;
	9	1	0	0	0	0	1	1.0818389	-17.8536428	220	1	1.11	0.95	139.0165	0.2188	0.0000	0.0000;
	10	1	0	0	0	0	1	1.0846275	-21.6879464	220	1	1.11	0.95	74.6807	-10.6232	0.0000	0.0000;
	11	1	0	0	0	0	1	1.02258699	-12.785297	400	1	1.05	0.95	145.7285	1.5621	0.0000	0.0000;
	12	1	0	0	0	0	1	1.02268479	-12.7763675	400	1	1.05	0.95	145.7224	1.5551	0.0000	0.0000;
	13	1	0	0	0	0	1	1.00565953	-17.2274391	400	1	1.05	0.95	142.1576	1.6498	0.0000	0.0000;
	14	1	0	0	0	0	1	1.03453567	-17.7521231	220	1	1.11	0.95	161.3107	4.0597	0.0000	0.0000;
	15	1	0	0	0	0	1	1.03475505	-17.7467189	220	1	1.11	0.95	161.1552	4.0347	0.0000	0.0000;
	16	1	0	0	0	0	1	1.03481286	-17.7351895	220	1	1.11	0.95	161.1949	4.0415	0.0000	0.0000;
	17	1	0	0	0	0	1	1.01111581	-22.5416707	220	1	1.11	0.95	213.5679	10.7457	0.0000	0.0000;
	18	1	0	0	0	0	1	1.01759965	-22.0415034	220	1	1.11	0.95	191.1119	9.5755	0.0000	0.0000;
	19	1	0	0	0	0	1	1.02329928	-11.2482215	400	1	1.05	0.95	148.8865	3.0086	0.0000	0.0000;
	20	1	0	0	0	0	1	1.02335797	-11.2382914	400	1	1.05	0.95	148.8514	2.9998	0.0000	0.0000;
	21	1	0	0	0	0	1	1.00850022	-21.1151791	400	1	1.05	0.95	174.9261	9.3973	0.0000	0.0000;
	22	1	0	0	0	0	1	1.01162315	-16.845586	400	1	1.05	0.95	143.6888	2.1410	0.0000	0.0000;
	23	1	0	0	0	0	1	1.01162315	-16.845586	400	1	1.05	0.95	143.6888	2.1410	0.0000	0.0000;
	24	2	10.05	20.1	0	0	1	1.08345673	-23.5973488	220	1	1.11	0.95	158.6077	0.0000	0.0000	0.0000;
	25	2	10.05	20.1	0	0	1	1.08338982	-23.5934963	220	1	1.11	0.95	158.6100	-0.0000	0.0000	0.0000;
	26	1	0	0	0	0	1	1.08509422	-4.92634291	220	1	1.11	0.95	143.1189	1.2774	0.0000	0.0000;
	27	1	0	0	0	0	1	1.08522101	-4.93924957	220	1	1.11	0.95	143.1178	1.2760	0.0000	0.0000;
	28	1	0	0	0	0	1	1.03806916	-19.6985013	220	1	1.11	0.95	159.3953	1.3810	0.0000	0.0000;
	29	1	0	0	0	0	1	1.03801118	-19.6967127	220	1	1.11	0.95	159.3969	1.3820	0.0000	0.0000;
	30	1	0	0	0	0	1	1.03354428	-17.2050346	220	1	1.11	0.95	142.4076	2.7955	0.0000	0.0000;
	31	1	0	0	0	0	1	1.033478	-17.2189147	220	1	1.11	0.95	142.4893	2.8157	0.0000	0.0000;
	32	1	0	0	0	0	1	1.08443791	-2.62544467	220	1	1.11	0.95	141.5653	0.9340	0.0000	0.0000;
	33	1	0	0	0	0	1	1.0843383	-2.64885574	220	1	1.11	0.95	141.5815	0.9380	0.0000	0.0000;
	34	1	0	0	0	0	1	1.01866695	-14.8651227	400	1	1.05	0.95	150.3823	1.7144	0.0000	0.0000;
	35	1	0	0	0	0	1	1.01863253	-14.8701546	400	1	1.05	0.95	150.3891	1.7127	0.0000	0.0000;
	36	1	0	0	0	0	1	1.00746493	-18.0651902	400	1	1.05	0.95	152.2068	0.2674	0.0000	0.0000;
	37	3	48.68	86.21	0	0	1	1.11	0	220	1	1.11	0.95	138.9294	-0.0000	6212.7345	0.0000;
	38	2	54.54	89.93	0	0	1	1.11	1.65975017	220	1	1.11	0.95	138.3295	-0.0000	2711.5096	0.0000;
	39	2	20.1	40.19	0	0	1	1.11	1.6527693	220	1	1.11	0.95	138.3311	0.0000	4041.4816	0.0000;
	40	2	60.29	120.57	0	0	1	1.04758224	0.107866531	400	1	1.05	0.95	139.4399	-0.0000	0.0000	0.0000;
	41	2	60.29	120.57	0	0	1	1.04754721	0.115120665	400	1	1.05	0.95	139.4307	-0.0033	0.0000	0.0000;
	42	1	0	0	0	0	1	1.02527397	-19.0222247	220	1	1.11	0.95	163.0652	3.6024	0.0000	0.0000;
	43	1	0	0	0	0	1	1.0251631	-19.0266457	220	1	1.11	0.95	163.0808	3.6068	0.0000	0.0000;
	44	1	0	0	0	0	1	1.05	-1.48616135	400	1	1.05	0.95	139.4321	-1.9828	33625.7431	0.0000;
	45	1	0	0	0	0	1	1.04998442	-1.48974666	400	1	1.05	0.95	139.4348	-1.9812	0.0000	0.0000;
	46	1	0	0	0	0	1	1.03049884	-18.1179389	220	1	1.11	0.95	162.5411	4.2912	0.0000	0.0000;
	47	1	0	0	0	0	1	1.06023509	-8.12593214	220	1	1.11	0.95	146.1091	1.4933	0.0000	0.0000;
	48	1	0	0	0	0	1	1.06025262	-8.14215753	220	1	1.11	0.95	146.1159	1.4895	0.0000	0.0000;
	49	1	0	0	0	0	1	1.09562735	-11.9144583	220	2	1.11	0.95	145.9939	0.2425	0.0000	0.0000;
	50	1	0	0	0	0	1	1.09298843	-12.1465894	220	2	1.11	0.95	149.2947	0.3632	0.0000	0.0000;
	51	1	0	0	0	0	1	1.10530439	-10.4620838	220	2	1.11	0.95	147.0713	0.0824	0.0000	0.0000;
	52	1	0	0	0	0	1	1.10527891	-10.4670608	220	2	1.11	0.95	147.0787	0.0836	0.0000	0.0000;
	53	1	0	0	0	0	1	1.07318743	-14.0239653	220	2	1.11	0.95	148.0185	0.7983	0.0000	0.0000;
	54	1	3.23	1	0	0	1	1.0991042	-9.10405083	220	2	1.11	0.95	145.1276	-0.1035	0.0000	0.0000;
	55	1	0	0	0	0	1	1.09916414	-9.10513682	220	2	1.11	0.95	145.1329	-0.1056	0.0000	0.0000;
	56	1	0	0	0	0	1	1.03576565	-9.27989418	400	2	1.05	0.95	145.6901	-0.0972	0.0000	0.0000;
	57	2	26.12	60.29	0	0	1	1.10990526	-9.37444781	220	2	1.11	0.95	143.5200	-0.0000	0.0000	0.0000;
	58	2	54.26	120.57	0	0	1	1.10978796	-9.38598294	220	2	1.11	0.95	143.5052	0.0000	0.0000	0.0000;
	59	2	13.06	30.14	0	0	1	1.11	-9.37220223	220	2	1.11	0.95	143.5442	0.0007	4558.5118	0.0000;
	60	2	26.12	50.24	0	0	1	1.05	-7.98905	400	2	1.05	0.95	143.7898	0.0000	4906.7415	0.0000;
	61	2	26.12	50.24	0	0	1	1.05	-7.9810355	400	2	1.05	0.95	143.7823	-0.0000	2671.2265	0.0000;
	62	1	0	0	0	0	1	1.09355611	-9.84224778	220	2	1.11	0.95	145.9161	-0.0028	0.0000	0.0000;
	63	1	0	0	0	0	1	1.04509644	-13.325586	400	2	1.05	0.95	149.0208	-0.2695	0.0000	0.0000;
	64	1	0	0	0	0	1	1.04509604	-13.3267091	400	2	1.05	0.95	149.0210	-0.2707	0.0000	0.0000;
	65	1	0	0	0	0	1	1.04769182	-9.58932107	400	2	1.05	0.95	144.5670	0.0982	0.0000	0.0000;
	66	1	0	0	0	0	1	1.07970438	-12.3014146	220	2	1.11	0.95	146.7515	0.6932	0.0000	0.0000;
	67	1	0	0	0	0	1	1.07969258	-12.2964751	220	2	1.11	0.95	146.7504	0.6939	0.0000	0.0000;
	68	1	0	0	0	0	1	1.04564452	-9.63655329	400	2	1.05	0.95	145.8337	-0.0924	0.0000	0.0000;
	69	1	0	0	0	0	1	1.04562912	-9.63980779	400	2	1.05	0.95	145.8402	-0.0930	0.0000	0.0000;
	70	2	13.06	30.14	0	0	1	1.11	-9.27967107	220	2	1.11	0.95	146.4715	0.0000	2895.9552	0.0000;
	71	2	13.06	30.14	0	0	1	1.10993822	-9.2809673	220	2	1.11	0.95	146.4647	-0.0000	0.0000	0.0000;
	72	2	13.06	30.14	0	0	1	1.04317272	-9.50842322	400	2	1.05	0.95	146.4244	-0.2463	0.0000	0.0000;
	73	2	26.12	60.29	0	0	1	1.04320285	-9.50928714	400	2	1.05	0.95	146.4233	-0.2490	0.0000	0.0000;
	74	2	149.71	60.29	0	0	1	1.10483129	-10.5359496	220	2	1.11	0.95	144.6237	0.0596	0.0000	0.0000;
	75	1	29.14	10.05	0	0	1	1.10480798	-10.5382061	220	2	1.11	0.95	144.6253	0.0603	0.0000	0.0000;
	76	1	0	0	0	0	1	1.09599437	-10.064728	220	2	1.11	0.95	146.0690	-0.0485	0.0000	0.0000;
	77	1	0	0	0	0	1	1.0959926	-10.0605501	220	2	1.11	0.95	146.0639	-0.0492	0.0000	0.0000;
	78	1	0	0	0	0	1	1.10202967	-10.6786155	220	2	1.11	0.95	145.0351	0.0719	0.0000	0.0000;
	79	1	0	0	0	0	1	1.10205052	-10.6808905	220	2	1.11	0.95	145.0332	0.0722	0.0000	0.0000;
	80	1	0	0	0	0	1	1.05	-10.9216575	400	2	1.05	0.95	147.3243	-0.9291	19503.6049	0.0000;
	81	1	0	0	0	0	1	1.04996803	-10.9334207	400	2	1.05	0.95	147.3376	-0.9257	0.0000	0.0000;
	82	1	0	0	0	0	1	1.10140383	-11.3821445	220	2	1.11	0.95	146.5154	0.0773	0.0000	0.0000;
	83	1	0	0	0	0	1	1.10224609	-11.2539929	220	2	1.11	0.95	146.5614	0.0616	0.0000	0.0000;
	84	1	0	0	0	0	1	1.08096839	-11.1387239	220	2	1.11	0.95	145.9751	0.7584	0.0000	0.0000;
	85	1	0	0	0	0	1	1.09216006	-3.90778933	220	3	1.11	0.95	140.5317	0.2666	0.0000	0.0000;
	86	1	9.35	0	0	0	1	1.08540098	-8.88438345	220	3	1.11	0.95	148.5230	2.1545	0.0000	0.0000;
	87	1	8.18	0	0	0	1	1.08542902	-8.88398203	220	3	1.11	0.95	148.5150	2.1476	0.0000	0.0000;
	88	1	0	0	0	0	1	1.08705722	-2.97078289	220	3	1.11	0.95	137.6222	0.2349	0.0000	0.0000;
	89	1	0	0	0	0	1	1.08719714	-2.95701912	220	3	1.11	0.95	137.6132	0.2330	0.0000	0.0000;
	90	1	0	0	0	0	1	1.10895712	-2.38622727	220	3	1.11	0.95	136.8315	-0.0895	0.0000	0.0000;
	91	1	0	0	0	0	1	1.10896808	-2.38857675	220	3	1.11	0.95	136.8321	-0.0901	0.0000	0.0000;
	92	1	0	0	0	0	1	1.06418538	-4.37797598	220	3	1.11	0.95	139.4215	0.6955	0.0000	0.0000;
	93	1	0	0	0	0	1	1.06391566	-4.38558066	220	3	1.11	0.95	139.4334	0.6980	0.0000	0.0000;
	94	2	28.13	70.33	0	0	1	1.09753501	-2.06734938	220	3	1.11	0.95	136.7646	0.0006	0.0000	0.0000;
	95	2	42.2	103.49	0	0	1	1.10135532	-1.54170123	220	3	1.11	0.95	136.3562	0.0000	0.0000	0.0000;
	96	1	7.72	-24.99	0	0	1	1.08477926	-3.09338083	220	3	1.11	0.95	139.6130	0.3700	0.0000	0.0000;
	97	1	0	0	0	0	1	1.08474113	-3.09461035	220	3	1.11	0.95	139.6035	0.3699	0.0000	0.0000;
	98	2	32.15	142.68	0	0	1	1.05	-3.60743562	400	3	1.05	0.95	139.4376	-0.0000	6198.7125	0.0000;
	99	1	0	0	0	0	1	1.04993869	-3.63501366	400	3	1.05	0.95	139.4632	0.0016	0.0000	0.0000;
	100	1	0	0	0	0	1	1.06133018	-5.23593952	220	3	1.11	0.95	140.0262	1.1828	0.0000	0.0000;
	101	1	0	0	0	0	1	1.10457025	-1.98556376	220	3	1.11	0.95	136.3329	0.0596	0.0000	0.0000;
	102	1	0	0	0	0	1	1.10452398	-1.9828689	220	3	1.11	0.95	136.3326	0.0593	0.0000	0.0000;
	103	1	45.11	7.94	0	0	1	1.09494832	-3.71189462	220	3	1.11	0.95	140.1255	0.2131	0.0000	0.0000;
	104	1	0	0	0	0	1	1.09488808	-3.71687103	220	3	1.11	0.95	140.1265	0.2141	0.0000	0.0000;
	105	1	0	0	0	0	1	1.09591416	-1.83393044	220	3	1.11	0.95	136.4757	0.2211	0.0000	0.0000;
	106	1	0	0	0	0	1	1.0957885	-1.83707015	220	3	1.11	0.95	136.4754	0.2209	0.0000	0.0000;
	107	1	0	0	0	0	1	1.09921106	-3.27539155	220	3	1.11	0.95	139.8870	0.1159	0.0000	0.0000;
	108	1	0	0	0	0	1	1.09920908	-3.28070894	220	3	1.11	0.95	139.8925	0.1160	0.0000	0.0000;
	109	1	0	0	0	0	1	1.04453014	-1.74032899	400	3	1.05	0.95	139.8090	0.0421	0.0000	0.0000;
	110	1	0	0	0	0	1	1.04453826	-1.7419527	400	3	1.05	0.95	139.8093	0.0418	0.0000	0.0000;
	111	1	0	0	0	0	1	1.1001727	-1.70882203	220	3	1.11	0.95	135.9870	0.1324	0.0000	0.0000;
	112	1	0	0	0	0	1	1.10021404	-1.70771231	220	3	1.11	0.95	135.9832	0.1322	0.0000	0.0000;
	113	1	0	0	0	0	1	1.08211196	-3.21974855	220	3	1.11	0.95	137.8267	0.6235	0.0000	0.0000;
	114	1	0	0	0	0	1	1.08201984	-3.22992278	220	3	1.11	0.95	137.8353	0.6257	0.0000	0.0000;
	115	2	29.36	18.51	0	0	1	1.09360804	-2.95666469	220	3	1.11	0.95	138.0620	0.2813	0.0000	0.0000;
	116	1	0	0	0	0	1	1.09358793	-2.96800034	220	3	1.11	0.95	138.0736	0.2826	0.0000	0.0000;
	117	1	0	0	0	0	1	1.08546939	-8.86440544	220	3	1.11	0.95	148.4972	2.1485	0.0000	0.0000;
	118	1	0	0	0	0	1	1.08544994	-8.86202976	220	3	1.11	0.95	148.5027	2.1553	0.0000	0.0000;
	119	1	0	0	0	0	1	1.0490125	-4.75726477	220	3	1.11	0.95	140.1759	0.9872	0.0000	0.0000;
	120	1	0	0	0	0	1	1.04896822	-4.75902445	220	3	1.11	0.95	140.1802	0.9884	0.0000	0.0000;
	121	2	0	0	0	0	1	1.10754519	-1.72621063	220	3	1.11	0.95	135.9814	0.0015	0.0000	0.0000;
	122	2	10.05	44.21	0	0	1	1.10759395	-1.72569287	220	3	1.11	0.95	135.9762	0.0000	0.0000	0.0000;
	123	2	7.03	18.09	0	0	1	1.10456318	-1.72474668	220	3	1.11	0.95	136.4259	0.0000	0.0000	0.0000;
	124	2	8.04	21.1	0	0	1	1.10461596	-1.71426909	220	3	1.11	0.95	136.4097	-0.0000	0.0000	0.0000;
	125	1	0	0	0	0	1	1.09016565	-4.24445286	220	3	1.11	0.95	139.6278	0.3759	0.0000	0.0000;
	126	1	71.54	7.94	0	0	1	1.09020657	-4.2526521	220	3	1.11	0.95	139.6286	0.3765	0.0000	0.0000;
	127	1	0	0	0	0	1	1.04347769	-4.8220484	220	3	1.11	0.95	136.2945	0.9526	0.0000	0.0000;
	128	1	0	0	0	0	1	1.08238729	-2.61873987	220	3	1.11	0.95	141.2436	0.6021	0.0000	0.0000;
	129	1	0	0	0	0	1	1.0824103	-2.62108732	220	3	1.11	0.95	141.2346	0.6002	0.0000	0.0000;
	130	1	0	0	0	0	1	1.08179043	-3.17165847	220	3	1.11	0.95	138.9648	0.4396	0.0000	0.0000;
	131	1	0	0	0	0	1	1.08190003	-3.16294056	220	3	1.11	0.95	138.9512	0.4374	0.0000	0.0000;
	132	1	0	0	0	0	1	1.04606776	-5.09820044	400	3	1.05	0.95	140.8822	0.0604	0.0000	0.0000;
	133	1	0	0	0	0	1	1.04606776	-5.09820044	400	3	1.05	0.95	140.8822	0.0604	0.0000	0.0000;
	134	2	0	0	0	0	1	1.09304973	-2.6035434	220	3	1.11	0.95	137.1475	0.2315	0.0000	0.0000;
	135	2	9.04	20.1	0	0	1	1.09301817	-2.60494244	220	3	1.11	0.95	137.1427	0.2272	0.0000	0.0000;
	136	2	6.03	15.07	0	0	1	1.06662825	-4.04208642	220	3	1.11	0.95	136.6834	0.8021	0.0000	0.0000;
	137	1	0	0	0	0	1	1.06665321	-4.05364461	220	3	1.11	0.95	136.6911	0.8066	0.0000	0.0000;
	138	1	0	0	0	0	1	1.04692853	-10.792402	400	3	1.05	0.95	147.8881	-0.0093	0.0000	0.0000;
	139	1	0	0	0	0	1	1.04696122	-10.7946069	400	3	1.05	0.95	147.8831	-0.0108	0.0000	0.0000;
	140	1	0	0	0	0	1	1.04989267	-5.66036298	400	3	1.05	0.95	142.0564	-0.0359	0.0000	0.0000;
	141	1	0	0	0	0	1	1.04988883	-5.65786873	400	3	1.05	0.95	142.0597	-0.0347	0.0000	0.0000;
	142	1	0	0	0	0	1	1.03852473	-5.06133432	220	3	1.11	0.95	136.1493	1.1268	0.0000	0.0000;
	143	1	0	0	0	0	1	1.03860867	-5.05822274	220	3	1.11	0.95	136.1500	1.1288	0.0000	0.0000;
	144	2	18.34	15.86	0	0	1	1.10994996	-1.22453465	220	3	1.11	0.95	136.0631	-0.0000	0.0000	0.0000;
	145	2	41.01	43.07	0	0	1	1.11	-1.20388151	220	3	1.11	0.95	136.0557	0.0000	713.2331	0.0000;
	146	2	28.13	66.31	0	0	1	1.05	-4.08578549	400	3	1.05	0.95	139.6613	-0.0000	2025.4652	0.0000;
	147	1	0	0	0	0	1	1.04997243	-4.0844269	400	3	1.05	0.95	139.6581	0.0023	0.0000	0.0000;
	148	1	0	0	0	0	1	1.09359088	-3.8133835	220	3	1.11	0.95	140.1676	0.2460	0.0000	0.0000;
	149	1	0	0	0	0	1	1.09366403	-3.80709902	220	3	1.11	0.95	140.1599	0.2451	0.0000	0.0000;
	150	1	0	0	0	0	1	1.10350655	-1.73760949	220	3	1.11	0.95	136.3668	0.0104	0.0000	0.0000;
	151	1	0	0	0	0	1	1.09686512	-3.44113128	220	3	1.11	0.95	139.8229	0.1825	0.0000	0.0000;
	152	2	0	0	0	0	1	1.06421706	-4.37820829	220	3	1.11	0.95	139.4216	0.6943	0.0000	0.0000;
	153	2	0	0	0	0	1	1.06394723	-4.38581151	220	3	1.11	0.95	139.4334	0.6969	0.0000	0.0000;
	154	2	7.84	20.1	0	0	1	1.08949527	-11.689331	220	4	1.11	0.95	149.5029	0.5688	0.0000	0.0000;
	155	2	8.04	20.1	0	0	1	1.0894913	-11.7002966	220	4	1.11	0.95	149.5123	0.5690	0.0000	0.0000;
	156	1	0	0	0	0	1	1.06324141	-12.3479462	220	4	1.11	0.95	144.5665	2.2811	0.0000	0.0000;
	157	1	0	0	0	0	1	1.06320714	-12.3501635	220	4	1.11	0.95	144.5689	2.2820	0.0000	0.0000;
	158	1	0	0	0	0	1	1.05461751	-14.261914	220	4	1.11	0.95	145.3752	2.5010	0.0000	0.0000;
	159	1	0	0	0	0	1	1.08057167	-10.4785576	220	4	1.11	0.95	142.9763	1.5066	0.0000	0.0000;
	160	1	0	0	0	0	1	1.08048843	-10.488778	220	4	1.11	0.95	142.9826	1.5101	0.0000	0.0000;
	161	1	0	0	0	0	1	1.02289743	-10.439219	400	4	1.05	0.95	143.8029	2.1970	0.0000	0.0000;
	162	1	0	0	0	0	1	1.02286399	-10.4428887	400	4	1.05	0.95	143.8071	2.1991	0.0000	0.0000;
	163	1	0	0	0	0	1	1.02775394	-25.9824162	220	4	1.11	0.95	163.2795	3.0348	0.0000	0.0000;
	164	1	0	0	0	0	1	1.07709178	-30.1802561	220	4	1.11	0.95	165.6723	1.7051	0.0000	0.0000;
	165	1	0	0	0	0	1	1.07709178	-30.1802561	220	4	1.11	0.95	165.6723	1.7051	0.0000	0.0000;
	166	1	0	0	0	0	1	1.07400001	-26.7941569	220	4	1.11	0.95	161.1772	3.5795	0.0000	0.0000;
	167	1	0	0	0	0	1	1.07400001	-26.7941569	220	4	1.11	0.95	161.1772	3.5795	0.0000	0.0000;
	168	1	0	0	0	0	1	1.05400352	-14.5167601	220	4	1.11	0.95	145.4466	2.5288	0.0000	0.0000;
	169	2	0	0	0	0	1	1.08170127	-16.5775563	220	4	1.11	0.95	153.7145	0.8189	0.0000	0.0000;
	170	2	0	0	0	0	1	1.08168283	-16.5906554	220	4	1.11	0.95	153.7184	0.8175	0.0000	0.0000;
	171	1	0	0	0	0	1	1.11	-13.6225808	220	4	1.11	0.95	153.2065	0.0812	815.8946	0.0000;
	172	2	12.06	30.14	0	0	1	1.10419455	-27.9966504	220	4	1.11	0.95	163.1600	0.4129	0.0000	0.0000;
	173	2	9.39	2.43	0	0	1	1.10410277	-28.0060137	220	4	1.11	0.95	163.1660	0.4105	0.0000	0.0000;
	174	2	12.06	30.14	0	0	1	1.03210437	-26.5414419	400	4	1.05	0.95	163.0919	-0.0029	0.0000	0.0000;
	175	2	24.11	60.29	0	0	1	1.03209215	-26.5384932	400	4	1.05	0.95	163.0901	-0.0000	0.0000	0.0000;
	176	1	0	0	0	0	1	0.995696825	-24.7629017	220	4	1.11	0.95	161.2797	5.8757	0.0000	0.0000;
	177	1	0	0	0	0	1	0.995814245	-24.771166	220	4	1.11	0.95	161.2880	5.8688	0.0000	0.0000;
	178	1	0	0	0	0	1	1.05067665	-19.5924548	220	4	1.11	0.95	153.5191	5.2033	0.0000	0.0000;
	179	1	0	0	0	0	1	1.05069207	-19.5951866	220	4	1.11	0.95	153.5219	5.2026	0.0000	0.0000;
	180	2	26.12	64.3	0	0	1	1.11	-6.48057067	220	4	1.11	0.95	140.5581	0.0000	7185.0757	0.0000;
	181	2	26.12	64.3	0	0	1	1.11	-6.48759402	220	4	1.11	0.95	140.5596	0.0000	14183.5741	0.0000;
	182	2	26.12	64.51	0	0	1	1.11	-6.46485371	220	4	1.11	0.95	140.5434	-0.0000	3391.2131	0.0000;
	183	2	26.12	64.51	0	0	1	1.04943134	-6.00436529	400	4	1.05	0.95	140.7338	0.0958	0.0000	0.0000;
	184	1	0	0	0	0	1	1.04939961	-6.00536201	400	4	1.05	0.95	140.7340	0.0953	0.0000	0.0000;
	185	1	0	0	0	0	1	1.0808963	-30.2499019	220	4	1.11	0.95	165.5664	1.5191	0.0000	0.0000;
	186	1	0	0	0	0	1	1.0808963	-30.2499019	220	4	1.11	0.95	165.5664	1.5191	0.0000	0.0000;
	187	1	0	0	0	0	1	1.00888473	-11.8775035	400	4	1.05	0.95	144.6656	3.0265	0.0000	0.0000;
	188	1	0	0	0	0	1	0.979291253	-17.6036914	400	4	1.05	0.95	146.4834	4.6534	0.0000	0.0000;
	189	1	0	0	0	0	1	1.0213752	-9.9252241	400	4	1.05	0.95	143.2958	2.1852	0.0000	0.0000;
	190	1	0	0	0	0	1	1.02138795	-9.91875603	400	4	1.05	0.95	143.2900	2.1843	0.0000	0.0000;
	191	2	12.06	30.14	0	0	1	1.08366222	-16.7106999	220	4	1.11	0.95	153.7941	0.7134	0.0000	0.0000;
	192	2	14.66	30.65	0	0	1	1.08337081	-16.7512579	220	4	1.11	0.95	153.8197	0.7234	0.0000	0.0000;
	193	2	38.18	64.3	0	0	1	1.03296341	-10.133477	400	4	1.05	0.95	153.2629	0.5013	0.0000	0.0000;
	194	1	0	0	0	0	1	1.01491258	-32.3116893	220	4	1.11	0.95	169.9777	1.6856	0.0000	0.0000;
	195	1	0	0	0	0	1	1.01496162	-32.316727	220	4	1.11	0.95	169.9785	1.6798	0.0000	0.0000;
	196	1	0	0	0	0	1	1.07652443	-30.2690923	220	4	1.11	0.95	165.7364	1.7209	0.0000	0.0000;
	197	1	0	0	0	0	1	1.07653046	-30.2703443	220	4	1.11	0.95	165.7366	1.7206	0.0000	0.0000;
	198	1	0	0	0	0	1	1.02174225	-26.9621195	220	4	1.11	0.95	164.0648	3.2914	0.0000	0.0000;
	199	1	0	0	0	0	1	1.02172516	-26.9552203	220	4	1.11	0.95	164.0572	3.2947	0.0000	0.0000;
	200	1	0	0	0	0	1	0.979653559	-28.2669114	400	4	1.05	0.95	164.6275	2.8370	0.0000	0.0000;
	201	1	0	0	0	0	1	0.979653559	-28.2669114	400	4	1.05	0.95	164.6275	2.8370	0.0000	0.0000;
	202	1	0	0	0	0	1	1.01744071	-18.7146339	220	4	1.11	0.95	152.5597	5.5806	0.0000	0.0000;
	203	1	0	0	0	0	1	1.01743188	-18.7098531	220	4	1.11	0.95	152.5564	5.5802	0.0000	0.0000;
	204	1	0	0	0	0	1	1.0116211	-27.6935432	220	4	1.11	0.95	165.0729	3.5452	0.0000	0.0000;
	205	1	0	0	0	0	1	1.06349227	-11.9195886	220	4	1.11	0.95	144.3348	2.1864	0.0000	0.0000;
	206	1	0	0	0	0	1	1.06350195	-11.9307919	220	4	1.11	0.95	144.3374	2.1871	0.0000	0.0000;
	207	1	0	0	0	0	1	1.05613116	-10.6706149	220	4	1.11	0.95	143.1898	2.2213	0.0000	0.0000;
	208	2	3.14	1.51	0	0	1	1.06979887	-18.1360932	220	4	1.11	0.95	152.1284	4.4983	0.0000	0.0000;
	209	1	0	0	0	0	1	1.00833501	-19.9053759	220	4	1.11	0.95	153.9103	6.0379	0.0000	0.0000;
	210	1	0	0	0	0	1	1.0083148	-19.8983941	220	4	1.11	0.95	153.9032	6.0361	0.0000	0.0000;
	211	1	0	0	0	0	1	1.04433817	-25.9140545	220	5	1.11	0.95	160.6915	0.0145	0.0000	0.0000;
	212	1	0	0	0	0	1	1.11	-29.1338616	220	5	1.11	0.95	163.8700	-4.4734	12004.8471	0.0000;
	213	1	0	0	0	0	1	1.03151727	-27.9365077	400	5	1.05	0.95	163.4471	-1.7029	0.0000	0.0000;
	214	1	0	0	0	0	1	1.03154483	-27.9360502	400	5	1.05	0.95	163.4473	-1.7008	0.0000	0.0000;
	215	1	0	0	0	0	1	1.02515836	-26.7599449	400	5	1.05	0.95	162.4596	0.0510	0.0000	0.0000;
	216	1	0	0	0	0	1	1.02516725	-26.7659615	400	5	1.05	0.95	162.4682	0.0476	0.0000	0.0000;
	217	1	0	0	0	0	1	1.03187186	-32.0451517	400	5	1.05	0.95	164.4829	0.0940	0.0000	0.0000;
	218	1	0	0	0	0	1	1.02531021	-30.5738647	220	5	1.11	0.95	165.8841	0.1795	0.0000	0.0000;
	219	1	0	0	0	0	1	1.02531045	-30.5787979	220	5	1.11	0.95	165.8882	0.1782	0.0000	0.0000;
	220	1	0	0	0	0	1	1.05628753	-26.1256178	220	5	1.11	0.95	160.3871	1.0536	0.0000	0.0000;
	221	1	0	0	0	0	1	1.05621907	-26.1293195	220	5	1.11	0.95	160.3915	1.0523	0.0000	0.0000;
	222	1	0	0	0	0	1	1.00789776	-23.484043	400	5	1.05	0.95	158.8140	1.4361	0.0000	0.0000;
	223	1	0	0	0	0	1	1.00789776	-23.484043	400	5	1.05	0.95	158.8140	1.4361	0.0000	0.0000;
	224	1	0	0	0	0	1	1.0303756	-29.117731	400	5	1.05	0.95	160.5822	1.1955	0.0000	0.0000;
	225	1	0	0	0	0	1	1.05233651	-25.0328412	220	5	1.11	0.95	160.2711	0.3701	0.0000	0.0000;
	226	1	0	0	0	0	1	1.05235554	-25.0264189	220	5	1.11	0.95	160.2683	0.3741	0.0000	0.0000;
	227	1	0	0	0	0	1	1.07054116	-28.7009583	220	5	1.11	0.95	159.7048	-0.1634	0.0000	0.0000;
	228	1	0	0	0	0	1	1.06046646	-29.0620376	220	5	1.11	0.95	164.7448	-1.1162	0.0000	0.0000;
	229	1	0	0	0	0	1	1.02781156	-28.8207977	400	5	1.05	0.95	164.4447	-0.9727	0.0000	0.0000;
	230	1	0	0	0	0	1	1.02777718	-28.8211282	400	5	1.05	0.95	164.4458	-0.9717	0.0000	0.0000;
	231	1	0	0	0	0	1	1.05	-32.2553723	400	5	1.05	0.95	166.1610	-2.2765	11231.2388	0.0000;
	232	1	0	0	0	0	1	1.05258136	-29.1494537	220	5	1.11	0.95	164.9895	-0.9457	0.0000	0.0000;
	233	1	0	0	0	0	1	1.05266363	-29.1452568	220	5	1.11	0.95	164.9836	-0.9454	0.0000	0.0000;
	234	1	0	0	0	70	1	1.03700353	-27.4664652	400	5	1.25	0.75	162.9891	-1.1136	0.0000	0.0000;
	235	1	0	0	0	0	1	1.03699216	-27.4683057	400	5	1.05	0.95	162.9915	-1.1161	0.0000	0.0000;
	236	1	0	0	0	0	1	1.0302762	-27.2501868	220	5	1.11	0.95	162.7775	1.5530	0.0000	0.0000;
	237	1	0	0	0	0	1	1.03022468	-27.2494662	220	5	1.11	0.95	162.7823	1.5534	0.0000	0.0000;
	238	1	0	0	0	0	1	1.03299086	-25.2587342	220	5	1.11	0.95	161.9120	1.5074	0.0000	0.0000;
	239	1	0	0	0	0	1	1.03291551	-25.2741328	220	5	1.11	0.95	161.9193	1.5078	0.0000	0.0000;
	240	2	2.01	40.19	0	0	1	1.02418258	-25.9012606	400	5	1.05	0.95	162.0018	-0.0006	0.0000	0.0000;
	241	2	5.55	30.14	0	0	1	1.02418682	-25.8988627	400	5	1.05	0.95	161.9998	-0.0000	0.0000	0.0000;
	242	1	0	0	0	0	1	1.06914102	-30.5114223	220	5	1.11	0.95	165.7283	-2.2489	0.0000	0.0000;
	243	1	0	0	0	0	1	1.06925304	-30.5059811	220	5	1.11	0.95	165.7211	-2.2556	0.0000	0.0000;
	244	2	0	0	0	0	0	1.11	-2.19088958	220	0	1.11	0.95	138.0510	-0.0000	1778.2225	0.0000;
	245	1	9.94	2.01	0	0	1	1.05094066	-27.1297269	110	1	1.12	0.95	131.3306	10.0070	0.0000	0.0000;
	246	1	8.89	0	0	0	1	1.06419936	-34.164465	110	1	1.12	0.95	186.9971	-2.4388	0.0000	0.0000;
	247	1	8.89	0	0	0	1	1.06408481	-34.156854	110	1	1.12	0.95	187.0481	-2.4459	0.0000	0.0000;
	248	1	6.09	1	0	0	1	1.09505112	-21.0854392	110	1	1.12	0.95	189.0311	9.6762	0.0000	0.0000;
	249	1	6.09	2.01	0	0	1	1.0950037	-21.1112728	110	1	1.12	0.95	189.5813	9.7952	0.0000	0.0000;
	250	1	2.94	2.51	0	0	1	1.02474128	-25.9010468	110	1	1.12	0.95	150.8718	7.6783	0.0000	0.0000;
	251	1	6.29	5.83	0	0	1	1.02469467	-25.9036708	110	1	1.12	0.95	150.8740	7.6802	0.0000	0.0000;
	252	1	5.18	1.31	0	0	1	1.08928197	-2.23548506	110	1	1.12	0.95	140.3933	0.6042	0.0000	0.0000;
	253	1	6.2	1	0	0	1	1.07809056	-3.40008407	110	1	1.12	0.95	140.2826	0.8536	0.0000	0.0000;
	254	2	-11.53	119.74	0	0	1	1.0973678	-23.7563146	110	1	1.12	0.95	0.0000	40.0114	0.0000	0.0000;
	255	1	23.02	2.01	0	0	1	1.09770821	-23.9631562	110	1	1.12	0.95	43.6551	27.5449	0.0000	0.0000;
	256	1	14.65	1.51	0	0	1	1.09902036	-24.1572275	110	1	1.12	0.95	167.3892	-3.2789	0.0000	0.0000;
	257	1	16.74	0	0	0	1	1.0988944	-24.3198574	110	1	1.12	0.95	159.8060	-0.6171	0.0000	0.0000;
	258	1	26.16	3.01	0	0	1	1.09736255	-24.4583609	110	1	1.12	0.95	165.0496	-2.1019	0.0000	0.0000;
	259	1	11.51	2.01	0	0	1	1.09734341	-23.9410274	110	1	1.12	0.95	32.7980	30.6080	0.0000	0.0000;
	260	1	5.23	1	0	0	1	1.09695481	-24.3711539	110	1	1.12	0.95	184.4617	-7.6701	0.0000	0.0000;
	261	1	5.23	1	0	0	1	1.09686635	-24.3493294	110	1	1.12	0.95	185.3579	-7.7255	0.0000	0.0000;
	262	1	0	0	0	0	1	1.09878512	-24.3901165	110	1	1.12	0.95	184.4566	-7.7922	0.0000	0.0000;
	263	1	7.72	1.51	0	0	1	1.0871337	-24.1406804	110	1	1.12	0.95	158.9678	2.8102	0.0000	0.0000;
	264	1	5.59	1	0	0	1	1.08723395	-24.1334144	110	1	1.12	0.95	159.0643	2.8654	0.0000	0.0000;
	265	1	5.05	0.5	0	0	1	1.09258404	-23.3044719	110	1	1.12	0.95	163.3958	3.5586	0.0000	0.0000;
	266	1	5.05	0.5	0	0	1	1.09253468	-23.3250606	110	1	1.12	0.95	163.3604	3.5417	0.0000	0.0000;
	267	2	0.06	0	0	0	1	1.05814502	-18.0039269	110	1	1.12	0.95	159.0936	3.2940	0.0000	0.0000;
	268	2	10.87	2.51	0	0	1	1.07454292	-10.5791367	110	1	1.12	0.95	148.3677	1.0194	0.0000	0.0000;
	269	1	20.71	5.63	0	0	1	1.09835408	-23.0859319	110	1	1.12	0.95	184.4909	5.7076	0.0000	0.0000;
	270	1	0.91	0.4	0	0	1	1.0906501	-4.63453126	110	1	1.12	0.95	143.5419	0.5146	0.0000	0.0000;
	271	1	1.21	-0.9	0	0	1	1.08704645	-0.538165881	110	1	1.12	0.95	138.5364	0.4598	0.0000	0.0000;
	272	1	5.66	0.3	0	0	1	1.09865601	-24.1692604	110	1	1.12	0.95	158.9242	0.1066	0.0000	0.0000;
	273	1	5.23	0.2	0	0	1	1.09460633	-31.0650823	110	1	1.12	0.95	173.4886	-1.8331	0.0000	0.0000;
	274	1	24.07	2.01	0	0	1	1.0765368	-25.8052051	110	1	1.12	0.95	113.8039	13.2587	0.0000	0.0000;
	275	1	4.17	2.11	0	0	1	1.10837862	-9.17017785	110	1	1.12	0.95	144.6798	1.2209	0.0000	0.0000;
	276	1	8.33	1.51	0	0	1	1.05879991	-14.3543087	110	1	1.12	0.95	155.3643	3.7008	0.0000	0.0000;
	277	1	3.15	0.5	0	0	1	1.11185708	-23.1760229	110	1	1.12	0.95	169.5363	2.9561	0.0000	0.0000;
	278	2	3.86	1.61	0	0	1	1.11511232	-8.78331114	110	1	1.12	0.95	145.3584	1.1602	0.0000	0.0000;
	279	2	3.86	1.61	0	0	1	1.11989376	-10.090023	110	1	1.12	0.95	145.9079	-0.5914	0.0000	0.0000;
	280	1	24.36	6.53	0	0	1	1.08583237	-23.5750167	110	1	1.12	0.95	184.7508	7.6428	0.0000	0.0000;
	281	1	10.36	2.21	0	0	1	1.07925586	-3.2623779	110	1	1.12	0.95	140.0612	0.8254	0.0000	0.0000;
	282	1	6.09	0.5	0	0	1	1.0745247	-13.1433236	110	1	1.12	0.95	148.4171	1.1099	0.0000	0.0000;
	283	1	3.25	0.2	0	0	1	1.07451377	-13.1366939	110	1	1.12	0.95	148.4149	1.1105	0.0000	0.0000;
	284	1	13.51	7.03	0	0	1	1.074304	-2.26181043	110	1	1.12	0.95	139.4704	0.9094	0.0000	0.0000;
	285	1	20.72	11.55	0	0	1	1.07421091	-2.28452159	110	1	1.12	0.95	139.4755	0.9125	0.0000	0.0000;
	286	1	10.31	0.4	0	0	1	1.07675746	-28.0286471	110	1	1.12	0.95	164.8728	0.8275	0.0000	0.0000;
	287	1	12.6	4.52	0	0	1	1.11049679	-8.57556745	110	1	1.12	0.95	144.1919	1.2516	0.0000	0.0000;
	288	1	9.6	0.8	0	0	1	1.07570357	-28.2682495	110	1	1.12	0.95	165.1508	0.8878	0.0000	0.0000;
	289	1	0	0	0	0	1	1.07572252	-28.2729527	110	1	1.12	0.95	165.1538	0.8860	0.0000	0.0000;
	290	1	6.28	0.3	0	0	1	1.07695765	-28.1700798	110	1	1.12	0.95	159.0161	2.0100	0.0000	0.0000;
	291	1	5.23	0	0	0	1	1.07061864	-28.3637237	110	1	1.12	0.95	160.3177	2.0513	0.0000	0.0000;
	292	1	4.19	0	0	0	1	1.07056767	-28.3677739	110	1	1.12	0.95	160.3269	2.0500	0.0000	0.0000;
	293	1	1.05	0	0	0	1	1.08163496	-27.10803	110	1	1.12	0.95	186.5403	-6.5532	0.0000	0.0000;
	294	1	0	0	0	0	1	1.08168588	-27.1322585	110	1	1.12	0.95	186.4961	-6.5514	0.0000	0.0000;
	295	2	0.23	0.4	0	0	1	1.08310651	-25.2547828	110	1	1.12	0.95	159.2184	2.7208	0.0000	0.0000;
	296	1	0	0	0	0	1	1.08313741	-25.2726659	110	1	1.12	0.95	159.2339	2.7186	0.0000	0.0000;
	297	1	9.42	2.01	0	0	1	1.06298011	-31.7846079	110	1	1.12	0.95	188.7750	-4.1451	0.0000	0.0000;
	298	1	0.3	0.1	0	0	1	1.10357001	-5.26420707	110	1	1.12	0.95	138.6705	-0.3778	0.0000	0.0000;
	299	1	0.3	0.1	0	0	1	1.099849	-5.19985227	110	1	1.12	0.95	139.4832	-0.4923	0.0000	0.0000;
	300	1	13.51	7.64	0	0	1	1.1013545	-5.34317165	110	1	1.12	0.95	138.9266	-0.2327	0.0000	0.0000;
	301	1	0.51	0.2	0	0	1	1.09981665	-5.2014375	110	1	1.12	0.95	139.4877	-0.4906	0.0000	0.0000;
	302	1	7.78	0.1	0	0	1	1.07849312	-30.2485428	110	1	1.12	0.95	166.8681	0.3354	0.0000	0.0000;
	303	1	8.99	0.1	0	0	1	1.07851749	-30.2604402	110	1	1.12	0.95	166.8675	0.3310	0.0000	0.0000;
	304	1	6.71	2.21	0	0	1	1.11123176	-9.50570443	110	1	1.12	0.95	145.2627	0.6176	0.0000	0.0000;
	305	1	6.7	0.6	0	0	1	1.10239129	-5.5285923	110	1	1.12	0.95	139.0271	-0.2886	0.0000	0.0000;
	306	1	3.66	0.3	0	0	1	1.102394	-5.50865852	110	1	1.12	0.95	139.0226	-0.2962	0.0000	0.0000;
	307	1	4.16	1	0	0	1	1.10051472	-24.746049	110	1	1.12	0.95	159.1880	0.0567	0.0000	0.0000;
	308	1	0	0	0	0	1	1.0865122	-0.506123836	110	1	1.12	0.95	138.5241	0.4844	0.0000	0.0000;
	309	1	0	0	0	0	1	1.08657168	-0.528031867	110	1	1.12	0.95	138.5315	0.4877	0.0000	0.0000;
	310	2	33.84	48.83	0	0	1	0.999942163	3.23947052	24	1	1.12	0.95	138.6507	0.0803	0.0000	0.0000;
	311	1	6.28	0.5	0	0	1	1.091573	-32.6578835	110	1	1.12	0.95	178.6475	-2.1373	0.0000	0.0000;
	312	1	6.28	0.5	0	0	1	1.09153349	-32.6779501	110	1	1.12	0.95	178.6530	-2.1366	0.0000	0.0000;
	313	1	4.71	0.5	0	0	1	1.09368214	-32.5668452	110	1	1.12	0.95	175.2630	-1.2277	0.0000	0.0000;
	314	1	2.62	0.5	0	0	1	1.10347283	-31.5139597	110	1	1.12	0.95	175.2872	-2.3828	0.0000	0.0000;
	315	1	0	0	0	45	1	1.08221769	-31.9011351	16	1	1.25	0.75	175.8343	-2.6647	0.0000	0.0000;
	316	2	0	-0.02	0	0	1	1.05247969	-25.0028838	110	1	1.12	0.95	149.2186	3.5655	0.0000	0.0000;
	317	1	17.79	2.51	0	0	1	1.09642396	-24.4913164	110	1	1.12	0.95	175.9841	-5.2220	0.0000	0.0000;
	318	1	3.66	0.5	0	0	1	1.05657068	-36.563212	110	1	1.12	0.95	189.0752	-2.0537	0.0000	0.0000;
	319	1	6.37	0.5	0	0	1	1.11548885	-21.8640656	110	1	1.12	0.95	161.0354	0.8902	0.0000	0.0000;
	320	1	24.36	6.53	0	0	1	1.06045662	-17.2005581	110	1	1.12	0.95	149.9899	2.3244	0.0000	0.0000;
	321	1	26.39	6.23	0	0	1	1.08901665	-23.7418605	110	1	1.12	0.95	181.8126	6.7065	0.0000	0.0000;
	322	1	17.27	1	0	0	1	1.07000248	-35.7662708	110	1	1.12	0.95	180.7221	-1.3750	0.0000	0.0000;
	323	1	43.95	2.51	0	0	1	1.08727911	-31.317118	110	1	1.12	0.95	181.3422	-3.9400	0.0000	0.0000;
	324	1	5.76	0.4	0	0	1	1.0906269	-31.3715135	110	1	1.12	0.95	180.0135	-3.6333	0.0000	0.0000;
	325	1	4.16	1	0	0	1	1.07399364	-2.23896619	110	1	1.12	0.95	140.9445	1.0389	0.0000	0.0000;
	326	1	4.88	1.21	0	0	1	1.07391048	-2.25591696	110	1	1.12	0.95	140.9534	1.0411	0.0000	0.0000;
	327	1	13.11	4.22	0	0	1	1.10243534	-9.80128933	110	1	1.12	0.95	147.3015	1.6778	0.0000	0.0000;
	328	1	8.37	1	0	0	1	1.05805809	-36.7599315	110	1	1.12	0.95	187.9177	-1.9400	0.0000	0.0000;
	329	1	10.15	1	0	0	1	1.09210584	-21.5179245	110	1	1.12	0.95	110.1731	-2.7968	0.0000	0.0000;
	330	1	12.18	2.01	0	0	1	1.09644661	-20.7764155	110	1	1.12	0.95	116.1484	-0.2002	0.0000	0.0000;
	331	1	3.84	1	0	0	1	1.07282165	-29.3430502	110	1	1.12	0.95	166.5746	0.7754	0.0000	0.0000;
	332	1	31.28	22.1	0	0	1	1.08496998	-0.879918368	110	1	1.12	0.95	138.7489	0.6029	0.0000	0.0000;
	333	1	22.75	13.06	0	0	1	1.07922655	-2.87263312	110	1	1.12	0.95	139.4609	0.8302	0.0000	0.0000;